version 2
run AODVVANET-Simple-100-0-20150831-21:02:08-4053
attr configname AODVVANET-Simple-100
attr datetime 20150831-21:02:08
attr experiment AODVVANET-Simple-100
attr inifile omnetpp.ini
attr iterationvars ""
attr iterationvars2 $repetition=0
attr measurement ""
attr network AODVVANET
attr processid 4053
attr repetition 0
attr replication #0
attr resultdir results
attr runnumber 0
attr seedset 0

scalar AODVVANET.vehicle[1].mobility 	startTime 	10
scalar AODVVANET.vehicle[1].mobility 	totalTime 	100
scalar AODVVANET.vehicle[1].mobility 	stopTime 	101
scalar AODVVANET.vehicle[1].mobility 	minSpeed 	3.2313665349782
scalar AODVVANET.vehicle[1].mobility 	maxSpeed 	48.168594989832
scalar AODVVANET.vehicle[1].mobility 	totalDistance 	2489.5923283145
scalar AODVVANET.vehicle[1].udp 	droppedPkBadChecksum:count 	0
attr interpolationmode  none
attr title  "packets dropped (checksum error), count"
scalar AODVVANET.vehicle[1].udp 	droppedPkWrongPort:count 	0
attr interpolationmode  none
attr title  "packets dropped (wrong port), count"
scalar AODVVANET.vehicle[1].udp 	passedUpPk:count 	11
attr interpolationmode  none
attr title  "packets passed up, count"
scalar AODVVANET.vehicle[1].udp 	rcvdPk:count 	11
attr interpolationmode  none
attr source  rcvdPk
attr title  "packets received, count"
scalar AODVVANET.vehicle[1].udp 	rcvdPk:sum(packetBytes) 	88
attr interpolationmode  none
attr source  rcvdPk
attr title  "packets received, sum(packetBytes)"
scalar AODVVANET.vehicle[1].udp 	sentPk:count 	21
attr interpolationmode  none
attr source  sentPk
attr title  "packets sent, count"
scalar AODVVANET.vehicle[1].udp 	sentPk:sum(packetBytes) 	168
attr interpolationmode  none
attr source  sentPk
attr title  "packets sent, sum(packetBytes)"
scalar AODVVANET.vehicle[1].networkLayer.arp 	failedARPResolution:count 	0
attr title  "ARP failed resolutions, count"
scalar AODVVANET.vehicle[1].networkLayer.arp 	completedARPResolution:count 	9
attr title  "ARP completed resolutions, count"
scalar AODVVANET.vehicle[1].networkLayer.arp 	initiatedARPResolution:count 	1
attr title  "ARP initiated resolutions, count"
scalar AODVVANET.vehicle[1].networkLayer.arp 	sentReply:count 	3
attr title  "ARP replies sent, count"
scalar AODVVANET.vehicle[1].networkLayer.arp 	sentReq:count 	2
attr title  "ARP request sent, count"
scalar AODVVANET.vehicle[1].wlan.mgmt 	dataQueueLen:max 	0
attr interpolationmode  sample-hold
attr title  "data queue length, max"
scalar AODVVANET.vehicle[1].wlan.mgmt 	dataQueueLen:timeavg 	0
attr interpolationmode  sample-hold
attr title  "data queue length, timeavg"
scalar AODVVANET.vehicle[1].wlan.mgmt 	dropPkByQueue:count 	0
attr interpolationmode  none
attr source  dropPkByQueue
attr title  "packets dropped by queue, count"
scalar AODVVANET.vehicle[1].wlan.mgmt 	dropPkByQueue:sum(packetBytes) 	0
attr interpolationmode  none
attr source  dropPkByQueue
attr title  "packets dropped by queue, sum(packetBytes)"
scalar AODVVANET.vehicle[1].wlan.mac 	"number of received packets" 	30
scalar AODVVANET.vehicle[1].wlan.mac 	"number of collisions" 	6
scalar AODVVANET.vehicle[1].wlan.mac 	"number of internal collisions" 	0
scalar AODVVANET.vehicle[1].wlan.mac 	"number of retry for AC 0" 	13
scalar AODVVANET.vehicle[1].wlan.mac 	"sent and received bits" 	35648
scalar AODVVANET.vehicle[1].wlan.mac 	"sent packet within AC 0" 	38
scalar AODVVANET.vehicle[1].wlan.mac 	"sent in TXOP " 	0
scalar AODVVANET.vehicle[1].wlan.mac 	"sentWithoutRetry AC 0" 	34
scalar AODVVANET.vehicle[1].wlan.mac 	"numGivenUp AC 0" 	1
scalar AODVVANET.vehicle[1].wlan.mac 	"numDropped AC 0" 	0
scalar AODVVANET.vehicle[1].wlan.mac 	rcvdPkFromHL:count 	69
attr interpolationmode  none
attr source  packetReceivedFromUpper
attr title  "packets received from higher layer, count"
scalar AODVVANET.vehicle[1].wlan.mac 	rcvdPkFromHL:sum(packetBytes) 	4526
attr interpolationmode  none
attr source  packetReceivedFromUpper
attr title  "packets received from higher layer, sum(packetBytes)"
scalar AODVVANET.vehicle[1].wlan.mac 	passedUpPk:count 	115
attr interpolationmode  none
attr source  packetSentToUpper
attr title  "packets passed to higher layer, count"
scalar AODVVANET.vehicle[1].wlan.mac 	passedUpPk:sum(packetBytes) 	7338
attr interpolationmode  none
attr source  packetSentToUpper
attr title  "packets passed to higher layer, sum(packetBytes)"
scalar AODVVANET.vehicle[1].wlan.mac 	rcvdPkFromLL:count 	325
attr interpolationmode  none
attr source  packetReceivedFromLower
attr title  "packets received from lower layer, count"
scalar AODVVANET.vehicle[1].wlan.mac 	rcvdPkFromLL:sum(packetBytes) 	15054
attr interpolationmode  none
attr source  packetReceivedFromLower
attr title  "packets received from lower layer, sum(packetBytes)"
scalar AODVVANET.vehicle[1].wlan.mac 	sentDownPk:count 	112
attr interpolationmode  none
attr source  packetSentToLower
attr title  "packets sent to lower layer, count"
scalar AODVVANET.vehicle[1].wlan.mac 	sentDownPk:sum(packetBytes) 	5800
attr interpolationmode  none
attr source  packetSentToLower
attr title  "packets sent to lower layer, sum(packetBytes)"
scalar AODVVANET.vehicle[1].wlan.radio 	lossRate:min 	0
attr interpolationmode  backward-sample-hold
attr title  "packet loss rate, min"
scalar AODVVANET.vehicle[1].wlan.radio 	lossRate:max 	0.04
attr interpolationmode  backward-sample-hold
attr title  "packet loss rate, max"
scalar AODVVANET.vehicle[1].wlan.radio 	lossRate:timeavg 	0.018632476472923
attr interpolationmode  backward-sample-hold
attr title  "packet loss rate, timeavg"
statistic AODVVANET.vehicle[1].wlan.radio 	channelNo:histogram
field count 1
field mean 0
field stddev -nan
field sum 0
field sqrsum 0
field min 0
field max 0
attr interpolationmode  sample-hold
attr title  "channel no, histogram"
bin	-INF	0
bin	-0.5	0
bin	-0.46666666666667	0
bin	-0.43333333333333	0
bin	-0.4	0
bin	-0.36666666666667	0
bin	-0.33333333333333	0
bin	-0.3	0
bin	-0.26666666666667	0
bin	-0.23333333333333	0
bin	-0.2	0
bin	-0.16666666666667	0
bin	-0.13333333333333	0
bin	-0.1	0
bin	-0.066666666666667	0
bin	-0.033333333333333	0
bin	0	1
bin	0.033333333333333	0
bin	0.066666666666667	0
bin	0.1	0
bin	0.13333333333333	0
bin	0.16666666666667	0
bin	0.2	0
bin	0.23333333333333	0
bin	0.26666666666667	0
bin	0.3	0
bin	0.33333333333333	0
bin	0.36666666666667	0
bin	0.4	0
bin	0.43333333333333	0
bin	0.46666666666667	0
bin	0.5	0
scalar AODVVANET.vehicle[1].wlan.radio 	bitrate:min 	2000000
attr interpolationmode  sample-hold
attr title  "tx bitrate, min"
attr unit  bps
scalar AODVVANET.vehicle[1].wlan.radio 	bitrate:max 	2000000
attr interpolationmode  sample-hold
attr title  "tx bitrate, max"
attr unit  bps
scalar AODVVANET.vehicle[1].wlan.radio 	bitrate:timeavg 	2000000
attr interpolationmode  sample-hold
attr title  "tx bitrate, timeavg"
attr unit  bps
scalar AODVVANET.vehicle[1].wlan.radio 	radioState:count 	882
attr interpolationmode  sample-hold
attr title  "radio state (enum), count"
scalar AODVVANET.vehicle[1] 	statEndToEndDelay:sum 	0.37390685477
scalar AODVVANET.vehicle[1] 	statPacketReceived:count 	11
scalar AODVVANET.vehicle[1] 	statPacketSent:count 	21
scalar AODVVANET.vehicle[1] 	statAODVRREPSENT:count 	8
scalar AODVVANET.vehicle[1] 	statAODVRREQSENT:count 	14
scalar AODVVANET.vehicle[2].mobility 	startTime 	19
scalar AODVVANET.vehicle[2].mobility 	totalTime 	108
scalar AODVVANET.vehicle[2].mobility 	stopTime 	109
scalar AODVVANET.vehicle[2].mobility 	minSpeed 	3.1241858781222
scalar AODVVANET.vehicle[2].mobility 	maxSpeed 	50.39264497187
scalar AODVVANET.vehicle[2].mobility 	totalDistance 	2486.5434856357
scalar AODVVANET.vehicle[2].udp 	droppedPkBadChecksum:count 	0
attr interpolationmode  none
attr title  "packets dropped (checksum error), count"
scalar AODVVANET.vehicle[2].udp 	droppedPkWrongPort:count 	0
attr interpolationmode  none
attr title  "packets dropped (wrong port), count"
scalar AODVVANET.vehicle[2].udp 	passedUpPk:count 	14
attr interpolationmode  none
attr title  "packets passed up, count"
scalar AODVVANET.vehicle[2].udp 	rcvdPk:count 	14
attr interpolationmode  none
attr source  rcvdPk
attr title  "packets received, count"
scalar AODVVANET.vehicle[2].udp 	rcvdPk:sum(packetBytes) 	112
attr interpolationmode  none
attr source  rcvdPk
attr title  "packets received, sum(packetBytes)"
scalar AODVVANET.vehicle[2].udp 	sentPk:count 	10
attr interpolationmode  none
attr source  sentPk
attr title  "packets sent, count"
scalar AODVVANET.vehicle[2].udp 	sentPk:sum(packetBytes) 	80
attr interpolationmode  none
attr source  sentPk
attr title  "packets sent, sum(packetBytes)"
scalar AODVVANET.vehicle[2].networkLayer.arp 	failedARPResolution:count 	0
attr title  "ARP failed resolutions, count"
scalar AODVVANET.vehicle[2].networkLayer.arp 	completedARPResolution:count 	13
attr title  "ARP completed resolutions, count"
scalar AODVVANET.vehicle[2].networkLayer.arp 	initiatedARPResolution:count 	4
attr title  "ARP initiated resolutions, count"
scalar AODVVANET.vehicle[2].networkLayer.arp 	sentReply:count 	1
attr title  "ARP replies sent, count"
scalar AODVVANET.vehicle[2].networkLayer.arp 	sentReq:count 	5
attr title  "ARP request sent, count"
scalar AODVVANET.vehicle[2].wlan.mgmt 	dataQueueLen:max 	0
attr interpolationmode  sample-hold
attr title  "data queue length, max"
scalar AODVVANET.vehicle[2].wlan.mgmt 	dataQueueLen:timeavg 	0
attr interpolationmode  sample-hold
attr title  "data queue length, timeavg"
scalar AODVVANET.vehicle[2].wlan.mgmt 	dropPkByQueue:count 	0
attr interpolationmode  none
attr source  dropPkByQueue
attr title  "packets dropped by queue, count"
scalar AODVVANET.vehicle[2].wlan.mgmt 	dropPkByQueue:sum(packetBytes) 	0
attr interpolationmode  none
attr source  dropPkByQueue
attr title  "packets dropped by queue, sum(packetBytes)"
scalar AODVVANET.vehicle[2].wlan.mac 	"number of received packets" 	44
scalar AODVVANET.vehicle[2].wlan.mac 	"number of collisions" 	12
scalar AODVVANET.vehicle[2].wlan.mac 	"number of internal collisions" 	0
scalar AODVVANET.vehicle[2].wlan.mac 	"number of retry for AC 0" 	5
scalar AODVVANET.vehicle[2].wlan.mac 	"sent and received bits" 	40048
scalar AODVVANET.vehicle[2].wlan.mac 	"sent packet within AC 0" 	45
scalar AODVVANET.vehicle[2].wlan.mac 	"sent in TXOP " 	0
scalar AODVVANET.vehicle[2].wlan.mac 	"sentWithoutRetry AC 0" 	41
scalar AODVVANET.vehicle[2].wlan.mac 	"numGivenUp AC 0" 	0
scalar AODVVANET.vehicle[2].wlan.mac 	"numDropped AC 0" 	0
scalar AODVVANET.vehicle[2].wlan.mac 	rcvdPkFromHL:count 	77
attr interpolationmode  none
attr source  packetReceivedFromUpper
attr title  "packets received from higher layer, count"
scalar AODVVANET.vehicle[2].wlan.mac 	rcvdPkFromHL:sum(packetBytes) 	5006
attr interpolationmode  none
attr source  packetReceivedFromUpper
attr title  "packets received from higher layer, sum(packetBytes)"
scalar AODVVANET.vehicle[2].wlan.mac 	passedUpPk:count 	148
attr interpolationmode  none
attr source  packetSentToUpper
attr title  "packets passed to higher layer, count"
scalar AODVVANET.vehicle[2].wlan.mac 	passedUpPk:sum(packetBytes) 	9496
attr interpolationmode  none
attr source  packetSentToUpper
attr title  "packets passed to higher layer, sum(packetBytes)"
scalar AODVVANET.vehicle[2].wlan.mac 	rcvdPkFromLL:count 	397
attr interpolationmode  none
attr source  packetReceivedFromLower
attr title  "packets received from lower layer, count"
scalar AODVVANET.vehicle[2].wlan.mac 	rcvdPkFromLL:sum(packetBytes) 	19246
attr interpolationmode  none
attr source  packetReceivedFromLower
attr title  "packets received from lower layer, sum(packetBytes)"
scalar AODVVANET.vehicle[2].wlan.mac 	sentDownPk:count 	126
attr interpolationmode  none
attr source  packetSentToLower
attr title  "packets sent to lower layer, count"
scalar AODVVANET.vehicle[2].wlan.mac 	sentDownPk:sum(packetBytes) 	5940
attr interpolationmode  none
attr source  packetSentToLower
attr title  "packets sent to lower layer, sum(packetBytes)"
scalar AODVVANET.vehicle[2].wlan.radio 	lossRate:min 	0
attr interpolationmode  backward-sample-hold
attr title  "packet loss rate, min"
scalar AODVVANET.vehicle[2].wlan.radio 	lossRate:max 	0.14
attr interpolationmode  backward-sample-hold
attr title  "packet loss rate, max"
scalar AODVVANET.vehicle[2].wlan.radio 	lossRate:timeavg 	0.039220639882564
attr interpolationmode  backward-sample-hold
attr title  "packet loss rate, timeavg"
statistic AODVVANET.vehicle[2].wlan.radio 	channelNo:histogram
field count 1
field mean 0
field stddev -nan
field sum 0
field sqrsum 0
field min 0
field max 0
attr interpolationmode  sample-hold
attr title  "channel no, histogram"
bin	-INF	0
bin	-0.5	0
bin	-0.46666666666667	0
bin	-0.43333333333333	0
bin	-0.4	0
bin	-0.36666666666667	0
bin	-0.33333333333333	0
bin	-0.3	0
bin	-0.26666666666667	0
bin	-0.23333333333333	0
bin	-0.2	0
bin	-0.16666666666667	0
bin	-0.13333333333333	0
bin	-0.1	0
bin	-0.066666666666667	0
bin	-0.033333333333333	0
bin	0	1
bin	0.033333333333333	0
bin	0.066666666666667	0
bin	0.1	0
bin	0.13333333333333	0
bin	0.16666666666667	0
bin	0.2	0
bin	0.23333333333333	0
bin	0.26666666666667	0
bin	0.3	0
bin	0.33333333333333	0
bin	0.36666666666667	0
bin	0.4	0
bin	0.43333333333333	0
bin	0.46666666666667	0
bin	0.5	0
scalar AODVVANET.vehicle[2].wlan.radio 	bitrate:min 	2000000
attr interpolationmode  sample-hold
attr title  "tx bitrate, min"
attr unit  bps
scalar AODVVANET.vehicle[2].wlan.radio 	bitrate:max 	2000000
attr interpolationmode  sample-hold
attr title  "tx bitrate, max"
attr unit  bps
scalar AODVVANET.vehicle[2].wlan.radio 	bitrate:timeavg 	2000000
attr interpolationmode  sample-hold
attr title  "tx bitrate, timeavg"
attr unit  bps
scalar AODVVANET.vehicle[2].wlan.radio 	radioState:count 	1050
attr interpolationmode  sample-hold
attr title  "radio state (enum), count"
scalar AODVVANET.vehicle[2] 	statEndToEndDelay:sum 	2.156137080564
scalar AODVVANET.vehicle[2] 	statPacketReceived:count 	14
scalar AODVVANET.vehicle[2] 	statPacketSent:count 	10
scalar AODVVANET.vehicle[2] 	statAODVRREPSENT:count 	11
scalar AODVVANET.vehicle[2] 	statAODVRREQSENT:count 	3
scalar AODVVANET.vehicle[3].mobility 	startTime 	28
scalar AODVVANET.vehicle[3].mobility 	totalTime 	115
scalar AODVVANET.vehicle[3].mobility 	stopTime 	116
scalar AODVVANET.vehicle[3].mobility 	minSpeed 	3.1830300401896
scalar AODVVANET.vehicle[3].mobility 	maxSpeed 	54.422325076562
scalar AODVVANET.vehicle[3].mobility 	totalDistance 	2481.6125937282
scalar AODVVANET.vehicle[3].udp 	droppedPkBadChecksum:count 	0
attr interpolationmode  none
attr title  "packets dropped (checksum error), count"
scalar AODVVANET.vehicle[3].udp 	droppedPkWrongPort:count 	0
attr interpolationmode  none
attr title  "packets dropped (wrong port), count"
scalar AODVVANET.vehicle[3].udp 	passedUpPk:count 	16
attr interpolationmode  none
attr title  "packets passed up, count"
scalar AODVVANET.vehicle[3].udp 	rcvdPk:count 	16
attr interpolationmode  none
attr source  rcvdPk
attr title  "packets received, count"
scalar AODVVANET.vehicle[3].udp 	rcvdPk:sum(packetBytes) 	128
attr interpolationmode  none
attr source  rcvdPk
attr title  "packets received, sum(packetBytes)"
scalar AODVVANET.vehicle[3].udp 	sentPk:count 	14
attr interpolationmode  none
attr source  sentPk
attr title  "packets sent, count"
scalar AODVVANET.vehicle[3].udp 	sentPk:sum(packetBytes) 	112
attr interpolationmode  none
attr source  sentPk
attr title  "packets sent, sum(packetBytes)"
scalar AODVVANET.vehicle[3].networkLayer.arp 	failedARPResolution:count 	0
attr title  "ARP failed resolutions, count"
scalar AODVVANET.vehicle[3].networkLayer.arp 	completedARPResolution:count 	16
attr title  "ARP completed resolutions, count"
scalar AODVVANET.vehicle[3].networkLayer.arp 	initiatedARPResolution:count 	4
attr title  "ARP initiated resolutions, count"
scalar AODVVANET.vehicle[3].networkLayer.arp 	sentReply:count 	3
attr title  "ARP replies sent, count"
scalar AODVVANET.vehicle[3].networkLayer.arp 	sentReq:count 	4
attr title  "ARP request sent, count"
scalar AODVVANET.vehicle[3].wlan.mgmt 	dataQueueLen:max 	0
attr interpolationmode  sample-hold
attr title  "data queue length, max"
scalar AODVVANET.vehicle[3].wlan.mgmt 	dataQueueLen:timeavg 	0
attr interpolationmode  sample-hold
attr title  "data queue length, timeavg"
scalar AODVVANET.vehicle[3].wlan.mgmt 	dropPkByQueue:count 	0
attr interpolationmode  none
attr source  dropPkByQueue
attr title  "packets dropped by queue, count"
scalar AODVVANET.vehicle[3].wlan.mgmt 	dropPkByQueue:sum(packetBytes) 	0
attr interpolationmode  none
attr source  dropPkByQueue
attr title  "packets dropped by queue, sum(packetBytes)"
scalar AODVVANET.vehicle[3].wlan.mac 	"number of received packets" 	58
scalar AODVVANET.vehicle[3].wlan.mac 	"number of collisions" 	11
scalar AODVVANET.vehicle[3].wlan.mac 	"number of internal collisions" 	0
scalar AODVVANET.vehicle[3].wlan.mac 	"number of retry for AC 0" 	14
scalar AODVVANET.vehicle[3].wlan.mac 	"sent and received bits" 	42976
scalar AODVVANET.vehicle[3].wlan.mac 	"sent packet within AC 0" 	49
scalar AODVVANET.vehicle[3].wlan.mac 	"sent in TXOP " 	0
scalar AODVVANET.vehicle[3].wlan.mac 	"sentWithoutRetry AC 0" 	46
scalar AODVVANET.vehicle[3].wlan.mac 	"numGivenUp AC 0" 	1
scalar AODVVANET.vehicle[3].wlan.mac 	"numDropped AC 0" 	0
scalar AODVVANET.vehicle[3].wlan.mac 	rcvdPkFromHL:count 	83
attr interpolationmode  none
attr source  packetReceivedFromUpper
attr title  "packets received from higher layer, count"
scalar AODVVANET.vehicle[3].wlan.mac 	rcvdPkFromHL:sum(packetBytes) 	5442
attr interpolationmode  none
attr source  packetReceivedFromUpper
attr title  "packets received from higher layer, sum(packetBytes)"
scalar AODVVANET.vehicle[3].wlan.mac 	passedUpPk:count 	165
attr interpolationmode  none
attr source  packetSentToUpper
attr title  "packets passed to higher layer, count"
scalar AODVVANET.vehicle[3].wlan.mac 	passedUpPk:sum(packetBytes) 	10614
attr interpolationmode  none
attr source  packetSentToUpper
attr title  "packets passed to higher layer, sum(packetBytes)"
scalar AODVVANET.vehicle[3].wlan.mac 	rcvdPkFromLL:count 	375
attr interpolationmode  none
attr source  packetReceivedFromLower
attr title  "packets received from lower layer, count"
scalar AODVVANET.vehicle[3].wlan.mac 	rcvdPkFromLL:sum(packetBytes) 	18234
attr interpolationmode  none
attr source  packetReceivedFromLower
attr title  "packets received from lower layer, sum(packetBytes)"
scalar AODVVANET.vehicle[3].wlan.mac 	sentDownPk:count 	155
attr interpolationmode  none
attr source  packetSentToLower
attr title  "packets sent to lower layer, count"
scalar AODVVANET.vehicle[3].wlan.mac 	sentDownPk:sum(packetBytes) 	7170
attr interpolationmode  none
attr source  packetSentToLower
attr title  "packets sent to lower layer, sum(packetBytes)"
scalar AODVVANET.vehicle[3].wlan.radio 	lossRate:min 	0
attr interpolationmode  backward-sample-hold
attr title  "packet loss rate, min"
scalar AODVVANET.vehicle[3].wlan.radio 	lossRate:max 	0.1
attr interpolationmode  backward-sample-hold
attr title  "packet loss rate, max"
scalar AODVVANET.vehicle[3].wlan.radio 	lossRate:timeavg 	0.033666200597355
attr interpolationmode  backward-sample-hold
attr title  "packet loss rate, timeavg"
statistic AODVVANET.vehicle[3].wlan.radio 	channelNo:histogram
field count 1
field mean 0
field stddev -nan
field sum 0
field sqrsum 0
field min 0
field max 0
attr interpolationmode  sample-hold
attr title  "channel no, histogram"
bin	-INF	0
bin	-0.5	0
bin	-0.46666666666667	0
bin	-0.43333333333333	0
bin	-0.4	0
bin	-0.36666666666667	0
bin	-0.33333333333333	0
bin	-0.3	0
bin	-0.26666666666667	0
bin	-0.23333333333333	0
bin	-0.2	0
bin	-0.16666666666667	0
bin	-0.13333333333333	0
bin	-0.1	0
bin	-0.066666666666667	0
bin	-0.033333333333333	0
bin	0	1
bin	0.033333333333333	0
bin	0.066666666666667	0
bin	0.1	0
bin	0.13333333333333	0
bin	0.16666666666667	0
bin	0.2	0
bin	0.23333333333333	0
bin	0.26666666666667	0
bin	0.3	0
bin	0.33333333333333	0
bin	0.36666666666667	0
bin	0.4	0
bin	0.43333333333333	0
bin	0.46666666666667	0
bin	0.5	0
scalar AODVVANET.vehicle[3].wlan.radio 	bitrate:min 	2000000
attr interpolationmode  sample-hold
attr title  "tx bitrate, min"
attr unit  bps
scalar AODVVANET.vehicle[3].wlan.radio 	bitrate:max 	2000000
attr interpolationmode  sample-hold
attr title  "tx bitrate, max"
attr unit  bps
scalar AODVVANET.vehicle[3].wlan.radio 	bitrate:timeavg 	2000000
attr interpolationmode  sample-hold
attr title  "tx bitrate, timeavg"
attr unit  bps
scalar AODVVANET.vehicle[3].wlan.radio 	radioState:count 	1064
attr interpolationmode  sample-hold
attr title  "radio state (enum), count"
scalar AODVVANET.vehicle[3] 	statEndToEndDelay:sum 	0.379644180399
scalar AODVVANET.vehicle[3] 	statPacketReceived:count 	16
scalar AODVVANET.vehicle[3] 	statPacketSent:count 	14
scalar AODVVANET.vehicle[3] 	statAODVRREPSENT:count 	9
scalar AODVVANET.vehicle[3] 	statAODVRREQSENT:count 	12
scalar AODVVANET.vehicle[4].mobility 	startTime 	37
scalar AODVVANET.vehicle[4].mobility 	totalTime 	124
scalar AODVVANET.vehicle[4].mobility 	stopTime 	125
scalar AODVVANET.vehicle[4].mobility 	minSpeed 	3.1341081869323
scalar AODVVANET.vehicle[4].mobility 	maxSpeed 	54.397677949787
scalar AODVVANET.vehicle[4].mobility 	totalDistance 	2475.3506284525
scalar AODVVANET.vehicle[4].udp 	droppedPkBadChecksum:count 	0
attr interpolationmode  none
attr title  "packets dropped (checksum error), count"
scalar AODVVANET.vehicle[4].udp 	droppedPkWrongPort:count 	0
attr interpolationmode  none
attr title  "packets dropped (wrong port), count"
scalar AODVVANET.vehicle[4].udp 	passedUpPk:count 	12
attr interpolationmode  none
attr title  "packets passed up, count"
scalar AODVVANET.vehicle[4].udp 	rcvdPk:count 	12
attr interpolationmode  none
attr source  rcvdPk
attr title  "packets received, count"
scalar AODVVANET.vehicle[4].udp 	rcvdPk:sum(packetBytes) 	96
attr interpolationmode  none
attr source  rcvdPk
attr title  "packets received, sum(packetBytes)"
scalar AODVVANET.vehicle[4].udp 	sentPk:count 	9
attr interpolationmode  none
attr source  sentPk
attr title  "packets sent, count"
scalar AODVVANET.vehicle[4].udp 	sentPk:sum(packetBytes) 	72
attr interpolationmode  none
attr source  sentPk
attr title  "packets sent, sum(packetBytes)"
scalar AODVVANET.vehicle[4].networkLayer.arp 	failedARPResolution:count 	0
attr title  "ARP failed resolutions, count"
scalar AODVVANET.vehicle[4].networkLayer.arp 	completedARPResolution:count 	13
attr title  "ARP completed resolutions, count"
scalar AODVVANET.vehicle[4].networkLayer.arp 	initiatedARPResolution:count 	2
attr title  "ARP initiated resolutions, count"
scalar AODVVANET.vehicle[4].networkLayer.arp 	sentReply:count 	3
attr title  "ARP replies sent, count"
scalar AODVVANET.vehicle[4].networkLayer.arp 	sentReq:count 	2
attr title  "ARP request sent, count"
scalar AODVVANET.vehicle[4].wlan.mgmt 	dataQueueLen:max 	0
attr interpolationmode  sample-hold
attr title  "data queue length, max"
scalar AODVVANET.vehicle[4].wlan.mgmt 	dataQueueLen:timeavg 	0
attr interpolationmode  sample-hold
attr title  "data queue length, timeavg"
scalar AODVVANET.vehicle[4].wlan.mgmt 	dropPkByQueue:count 	0
attr interpolationmode  none
attr source  dropPkByQueue
attr title  "packets dropped by queue, count"
scalar AODVVANET.vehicle[4].wlan.mgmt 	dropPkByQueue:sum(packetBytes) 	0
attr interpolationmode  none
attr source  dropPkByQueue
attr title  "packets dropped by queue, sum(packetBytes)"
scalar AODVVANET.vehicle[4].wlan.mac 	"number of received packets" 	36
scalar AODVVANET.vehicle[4].wlan.mac 	"number of collisions" 	11
scalar AODVVANET.vehicle[4].wlan.mac 	"number of internal collisions" 	0
scalar AODVVANET.vehicle[4].wlan.mac 	"number of retry for AC 0" 	5
scalar AODVVANET.vehicle[4].wlan.mac 	"sent and received bits" 	34832
scalar AODVVANET.vehicle[4].wlan.mac 	"sent packet within AC 0" 	37
scalar AODVVANET.vehicle[4].wlan.mac 	"sent in TXOP " 	0
scalar AODVVANET.vehicle[4].wlan.mac 	"sentWithoutRetry AC 0" 	33
scalar AODVVANET.vehicle[4].wlan.mac 	"numGivenUp AC 0" 	0
scalar AODVVANET.vehicle[4].wlan.mac 	"numDropped AC 0" 	0
scalar AODVVANET.vehicle[4].wlan.mac 	rcvdPkFromHL:count 	67
attr interpolationmode  none
attr source  packetReceivedFromUpper
attr title  "packets received from higher layer, count"
scalar AODVVANET.vehicle[4].wlan.mac 	rcvdPkFromHL:sum(packetBytes) 	4354
attr interpolationmode  none
attr source  packetReceivedFromUpper
attr title  "packets received from higher layer, sum(packetBytes)"
scalar AODVVANET.vehicle[4].wlan.mac 	passedUpPk:count 	149
attr interpolationmode  none
attr source  packetSentToUpper
attr title  "packets passed to higher layer, count"
scalar AODVVANET.vehicle[4].wlan.mac 	passedUpPk:sum(packetBytes) 	9550
attr interpolationmode  none
attr source  packetSentToUpper
attr title  "packets passed to higher layer, sum(packetBytes)"
scalar AODVVANET.vehicle[4].wlan.mac 	rcvdPkFromLL:count 	398
attr interpolationmode  none
attr source  packetReceivedFromLower
attr title  "packets received from lower layer, count"
scalar AODVVANET.vehicle[4].wlan.mac 	rcvdPkFromLL:sum(packetBytes) 	19556
attr interpolationmode  none
attr source  packetReceivedFromLower
attr title  "packets received from lower layer, sum(packetBytes)"
scalar AODVVANET.vehicle[4].wlan.mac 	sentDownPk:count 	108
attr interpolationmode  none
attr source  packetSentToLower
attr title  "packets sent to lower layer, count"
scalar AODVVANET.vehicle[4].wlan.mac 	sentDownPk:sum(packetBytes) 	5176
attr interpolationmode  none
attr source  packetSentToLower
attr title  "packets sent to lower layer, sum(packetBytes)"
scalar AODVVANET.vehicle[4].wlan.radio 	lossRate:min 	0
attr interpolationmode  backward-sample-hold
attr title  "packet loss rate, min"
scalar AODVVANET.vehicle[4].wlan.radio 	lossRate:max 	0.1
attr interpolationmode  backward-sample-hold
attr title  "packet loss rate, max"
scalar AODVVANET.vehicle[4].wlan.radio 	lossRate:timeavg 	0.019724955367572
attr interpolationmode  backward-sample-hold
attr title  "packet loss rate, timeavg"
statistic AODVVANET.vehicle[4].wlan.radio 	channelNo:histogram
field count 1
field mean 0
field stddev -nan
field sum 0
field sqrsum 0
field min 0
field max 0
attr interpolationmode  sample-hold
attr title  "channel no, histogram"
bin	-INF	0
bin	-0.5	0
bin	-0.46666666666667	0
bin	-0.43333333333333	0
bin	-0.4	0
bin	-0.36666666666667	0
bin	-0.33333333333333	0
bin	-0.3	0
bin	-0.26666666666667	0
bin	-0.23333333333333	0
bin	-0.2	0
bin	-0.16666666666667	0
bin	-0.13333333333333	0
bin	-0.1	0
bin	-0.066666666666667	0
bin	-0.033333333333333	0
bin	0	1
bin	0.033333333333333	0
bin	0.066666666666667	0
bin	0.1	0
bin	0.13333333333333	0
bin	0.16666666666667	0
bin	0.2	0
bin	0.23333333333333	0
bin	0.26666666666667	0
bin	0.3	0
bin	0.33333333333333	0
bin	0.36666666666667	0
bin	0.4	0
bin	0.43333333333333	0
bin	0.46666666666667	0
bin	0.5	0
scalar AODVVANET.vehicle[4].wlan.radio 	bitrate:min 	2000000
attr interpolationmode  sample-hold
attr title  "tx bitrate, min"
attr unit  bps
scalar AODVVANET.vehicle[4].wlan.radio 	bitrate:max 	2000000
attr interpolationmode  sample-hold
attr title  "tx bitrate, max"
attr unit  bps
scalar AODVVANET.vehicle[4].wlan.radio 	bitrate:timeavg 	2000000
attr interpolationmode  sample-hold
attr title  "tx bitrate, timeavg"
attr unit  bps
scalar AODVVANET.vehicle[4].wlan.radio 	radioState:count 	1012
attr interpolationmode  sample-hold
attr title  "radio state (enum), count"
scalar AODVVANET.vehicle[4] 	statEndToEndDelay:sum 	1.051349964468
scalar AODVVANET.vehicle[4] 	statPacketReceived:count 	12
scalar AODVVANET.vehicle[4] 	statPacketSent:count 	9
scalar AODVVANET.vehicle[4] 	statAODVRREPSENT:count 	7
scalar AODVVANET.vehicle[4] 	statAODVRREQSENT:count 	3
scalar AODVVANET.vehicle[5].mobility 	startTime 	46
scalar AODVVANET.vehicle[5].mobility 	totalTime 	133
scalar AODVVANET.vehicle[5].mobility 	stopTime 	134
scalar AODVVANET.vehicle[5].mobility 	minSpeed 	3.1838865572307
scalar AODVVANET.vehicle[5].mobility 	maxSpeed 	54.732866948386
scalar AODVVANET.vehicle[5].mobility 	totalDistance 	2487.3518765826
scalar AODVVANET.vehicle[5].udp 	droppedPkBadChecksum:count 	0
attr interpolationmode  none
attr title  "packets dropped (checksum error), count"
scalar AODVVANET.vehicle[5].udp 	droppedPkWrongPort:count 	0
attr interpolationmode  none
attr title  "packets dropped (wrong port), count"
scalar AODVVANET.vehicle[5].udp 	passedUpPk:count 	6
attr interpolationmode  none
attr title  "packets passed up, count"
scalar AODVVANET.vehicle[5].udp 	rcvdPk:count 	6
attr interpolationmode  none
attr source  rcvdPk
attr title  "packets received, count"
scalar AODVVANET.vehicle[5].udp 	rcvdPk:sum(packetBytes) 	48
attr interpolationmode  none
attr source  rcvdPk
attr title  "packets received, sum(packetBytes)"
scalar AODVVANET.vehicle[5].udp 	sentPk:count 	14
attr interpolationmode  none
attr source  sentPk
attr title  "packets sent, count"
scalar AODVVANET.vehicle[5].udp 	sentPk:sum(packetBytes) 	112
attr interpolationmode  none
attr source  sentPk
attr title  "packets sent, sum(packetBytes)"
scalar AODVVANET.vehicle[5].networkLayer.arp 	failedARPResolution:count 	0
attr title  "ARP failed resolutions, count"
scalar AODVVANET.vehicle[5].networkLayer.arp 	completedARPResolution:count 	11
attr title  "ARP completed resolutions, count"
scalar AODVVANET.vehicle[5].networkLayer.arp 	initiatedARPResolution:count 	4
attr title  "ARP initiated resolutions, count"
scalar AODVVANET.vehicle[5].networkLayer.arp 	sentReply:count 	3
attr title  "ARP replies sent, count"
scalar AODVVANET.vehicle[5].networkLayer.arp 	sentReq:count 	4
attr title  "ARP request sent, count"
scalar AODVVANET.vehicle[5].wlan.mgmt 	dataQueueLen:max 	0
attr interpolationmode  sample-hold
attr title  "data queue length, max"
scalar AODVVANET.vehicle[5].wlan.mgmt 	dataQueueLen:timeavg 	0
attr interpolationmode  sample-hold
attr title  "data queue length, timeavg"
scalar AODVVANET.vehicle[5].wlan.mgmt 	dropPkByQueue:count 	0
attr interpolationmode  none
attr source  dropPkByQueue
attr title  "packets dropped by queue, count"
scalar AODVVANET.vehicle[5].wlan.mgmt 	dropPkByQueue:sum(packetBytes) 	0
attr interpolationmode  none
attr source  dropPkByQueue
attr title  "packets dropped by queue, sum(packetBytes)"
scalar AODVVANET.vehicle[5].wlan.mac 	"number of received packets" 	26
scalar AODVVANET.vehicle[5].wlan.mac 	"number of collisions" 	15
scalar AODVVANET.vehicle[5].wlan.mac 	"number of internal collisions" 	0
scalar AODVVANET.vehicle[5].wlan.mac 	"number of retry for AC 0" 	8
scalar AODVVANET.vehicle[5].wlan.mac 	"sent and received bits" 	36944
scalar AODVVANET.vehicle[5].wlan.mac 	"sent packet within AC 0" 	36
scalar AODVVANET.vehicle[5].wlan.mac 	"sent in TXOP " 	0
scalar AODVVANET.vehicle[5].wlan.mac 	"sentWithoutRetry AC 0" 	35
scalar AODVVANET.vehicle[5].wlan.mac 	"numGivenUp AC 0" 	1
scalar AODVVANET.vehicle[5].wlan.mac 	"numDropped AC 0" 	0
scalar AODVVANET.vehicle[5].wlan.mac 	rcvdPkFromHL:count 	72
attr interpolationmode  none
attr source  packetReceivedFromUpper
attr title  "packets received from higher layer, count"
scalar AODVVANET.vehicle[5].wlan.mac 	rcvdPkFromHL:sum(packetBytes) 	4688
attr interpolationmode  none
attr source  packetReceivedFromUpper
attr title  "packets received from higher layer, sum(packetBytes)"
scalar AODVVANET.vehicle[5].wlan.mac 	passedUpPk:count 	145
attr interpolationmode  none
attr source  packetSentToUpper
attr title  "packets passed to higher layer, count"
scalar AODVVANET.vehicle[5].wlan.mac 	passedUpPk:sum(packetBytes) 	9214
attr interpolationmode  none
attr source  packetSentToUpper
attr title  "packets passed to higher layer, sum(packetBytes)"
scalar AODVVANET.vehicle[5].wlan.mac 	rcvdPkFromLL:count 	412
attr interpolationmode  none
attr source  packetReceivedFromLower
attr title  "packets received from lower layer, count"
scalar AODVVANET.vehicle[5].wlan.mac 	rcvdPkFromLL:sum(packetBytes) 	20128
attr interpolationmode  none
attr source  packetReceivedFromLower
attr title  "packets received from lower layer, sum(packetBytes)"
scalar AODVVANET.vehicle[5].wlan.mac 	sentDownPk:count 	106
attr interpolationmode  none
attr source  packetSentToLower
attr title  "packets sent to lower layer, count"
scalar AODVVANET.vehicle[5].wlan.mac 	sentDownPk:sum(packetBytes) 	5596
attr interpolationmode  none
attr source  packetSentToLower
attr title  "packets sent to lower layer, sum(packetBytes)"
scalar AODVVANET.vehicle[5].wlan.radio 	lossRate:min 	0
attr interpolationmode  backward-sample-hold
attr title  "packet loss rate, min"
scalar AODVVANET.vehicle[5].wlan.radio 	lossRate:max 	0.08
attr interpolationmode  backward-sample-hold
attr title  "packet loss rate, max"
scalar AODVVANET.vehicle[5].wlan.radio 	lossRate:timeavg 	0.029370657152358
attr interpolationmode  backward-sample-hold
attr title  "packet loss rate, timeavg"
statistic AODVVANET.vehicle[5].wlan.radio 	channelNo:histogram
field count 1
field mean 0
field stddev -nan
field sum 0
field sqrsum 0
field min 0
field max 0
attr interpolationmode  sample-hold
attr title  "channel no, histogram"
bin	-INF	0
bin	-0.5	0
bin	-0.46666666666667	0
bin	-0.43333333333333	0
bin	-0.4	0
bin	-0.36666666666667	0
bin	-0.33333333333333	0
bin	-0.3	0
bin	-0.26666666666667	0
bin	-0.23333333333333	0
bin	-0.2	0
bin	-0.16666666666667	0
bin	-0.13333333333333	0
bin	-0.1	0
bin	-0.066666666666667	0
bin	-0.033333333333333	0
bin	0	1
bin	0.033333333333333	0
bin	0.066666666666667	0
bin	0.1	0
bin	0.13333333333333	0
bin	0.16666666666667	0
bin	0.2	0
bin	0.23333333333333	0
bin	0.26666666666667	0
bin	0.3	0
bin	0.33333333333333	0
bin	0.36666666666667	0
bin	0.4	0
bin	0.43333333333333	0
bin	0.46666666666667	0
bin	0.5	0
scalar AODVVANET.vehicle[5].wlan.radio 	bitrate:min 	2000000
attr interpolationmode  sample-hold
attr title  "tx bitrate, min"
attr unit  bps
scalar AODVVANET.vehicle[5].wlan.radio 	bitrate:max 	2000000
attr interpolationmode  sample-hold
attr title  "tx bitrate, max"
attr unit  bps
scalar AODVVANET.vehicle[5].wlan.radio 	bitrate:timeavg 	2000000
attr interpolationmode  sample-hold
attr title  "tx bitrate, timeavg"
attr unit  bps
scalar AODVVANET.vehicle[5].wlan.radio 	radioState:count 	1035
attr interpolationmode  sample-hold
attr title  "radio state (enum), count"
scalar AODVVANET.vehicle[5] 	statEndToEndDelay:sum 	1.177925232149
scalar AODVVANET.vehicle[5] 	statPacketReceived:count 	6
scalar AODVVANET.vehicle[5] 	statPacketSent:count 	14
scalar AODVVANET.vehicle[5] 	statAODVRREPSENT:count 	8
scalar AODVVANET.vehicle[5] 	statAODVRREQSENT:count 	2
scalar AODVVANET.vehicle[0].mobility 	startTime 	1
scalar AODVVANET.vehicle[0].mobility 	totalTime 	142
scalar AODVVANET.vehicle[0].mobility 	stopTime 	143
scalar AODVVANET.vehicle[0].mobility 	minSpeed 	0
scalar AODVVANET.vehicle[0].mobility 	maxSpeed 	46.857375133037
scalar AODVVANET.vehicle[0].mobility 	totalDistance 	2487.5221200913
scalar AODVVANET.vehicle[0].udp 	droppedPkBadChecksum:count 	0
attr interpolationmode  none
attr title  "packets dropped (checksum error), count"
scalar AODVVANET.vehicle[0].udp 	droppedPkWrongPort:count 	0
attr interpolationmode  none
attr title  "packets dropped (wrong port), count"
scalar AODVVANET.vehicle[0].udp 	passedUpPk:count 	21
attr interpolationmode  none
attr title  "packets passed up, count"
scalar AODVVANET.vehicle[0].udp 	rcvdPk:count 	21
attr interpolationmode  none
attr source  rcvdPk
attr title  "packets received, count"
scalar AODVVANET.vehicle[0].udp 	rcvdPk:sum(packetBytes) 	168
attr interpolationmode  none
attr source  rcvdPk
attr title  "packets received, sum(packetBytes)"
scalar AODVVANET.vehicle[0].udp 	sentPk:count 	19
attr interpolationmode  none
attr source  sentPk
attr title  "packets sent, count"
scalar AODVVANET.vehicle[0].udp 	sentPk:sum(packetBytes) 	152
attr interpolationmode  none
attr source  sentPk
attr title  "packets sent, sum(packetBytes)"
scalar AODVVANET.vehicle[0].networkLayer.arp 	failedARPResolution:count 	0
attr title  "ARP failed resolutions, count"
scalar AODVVANET.vehicle[0].networkLayer.arp 	completedARPResolution:count 	10
attr title  "ARP completed resolutions, count"
scalar AODVVANET.vehicle[0].networkLayer.arp 	initiatedARPResolution:count 	3
attr title  "ARP initiated resolutions, count"
scalar AODVVANET.vehicle[0].networkLayer.arp 	sentReply:count 	3
attr title  "ARP replies sent, count"
scalar AODVVANET.vehicle[0].networkLayer.arp 	sentReq:count 	5
attr title  "ARP request sent, count"
scalar AODVVANET.vehicle[0].wlan.mgmt 	dataQueueLen:max 	0
attr interpolationmode  sample-hold
attr title  "data queue length, max"
scalar AODVVANET.vehicle[0].wlan.mgmt 	dataQueueLen:timeavg 	0
attr interpolationmode  sample-hold
attr title  "data queue length, timeavg"
scalar AODVVANET.vehicle[0].wlan.mgmt 	dropPkByQueue:count 	0
attr interpolationmode  none
attr source  dropPkByQueue
attr title  "packets dropped by queue, count"
scalar AODVVANET.vehicle[0].wlan.mgmt 	dropPkByQueue:sum(packetBytes) 	0
attr interpolationmode  none
attr source  dropPkByQueue
attr title  "packets dropped by queue, sum(packetBytes)"
scalar AODVVANET.vehicle[0].wlan.mac 	"number of received packets" 	41
scalar AODVVANET.vehicle[0].wlan.mac 	"number of collisions" 	5
scalar AODVVANET.vehicle[0].wlan.mac 	"number of internal collisions" 	0
scalar AODVVANET.vehicle[0].wlan.mac 	"number of retry for AC 0" 	9
scalar AODVVANET.vehicle[0].wlan.mac 	"sent and received bits" 	38432
scalar AODVVANET.vehicle[0].wlan.mac 	"sent packet within AC 0" 	32
scalar AODVVANET.vehicle[0].wlan.mac 	"sent in TXOP " 	0
scalar AODVVANET.vehicle[0].wlan.mac 	"sentWithoutRetry AC 0" 	29
scalar AODVVANET.vehicle[0].wlan.mac 	"numGivenUp AC 0" 	1
scalar AODVVANET.vehicle[0].wlan.mac 	"numDropped AC 0" 	0
scalar AODVVANET.vehicle[0].wlan.mac 	rcvdPkFromHL:count 	75
attr interpolationmode  none
attr source  packetReceivedFromUpper
attr title  "packets received from higher layer, count"
scalar AODVVANET.vehicle[0].wlan.mac 	rcvdPkFromHL:sum(packetBytes) 	4874
attr interpolationmode  none
attr source  packetReceivedFromUpper
attr title  "packets received from higher layer, sum(packetBytes)"
scalar AODVVANET.vehicle[0].wlan.mac 	passedUpPk:count 	124
attr interpolationmode  none
attr source  packetSentToUpper
attr title  "packets passed to higher layer, count"
scalar AODVVANET.vehicle[0].wlan.mac 	passedUpPk:sum(packetBytes) 	7952
attr interpolationmode  none
attr source  packetSentToUpper
attr title  "packets passed to higher layer, sum(packetBytes)"
scalar AODVVANET.vehicle[0].wlan.mac 	rcvdPkFromLL:count 	327
attr interpolationmode  none
attr source  packetReceivedFromLower
attr title  "packets received from lower layer, count"
scalar AODVVANET.vehicle[0].wlan.mac 	rcvdPkFromLL:sum(packetBytes) 	15522
attr interpolationmode  none
attr source  packetReceivedFromLower
attr title  "packets received from lower layer, sum(packetBytes)"
scalar AODVVANET.vehicle[0].wlan.mac 	sentDownPk:count 	125
attr interpolationmode  none
attr source  packetSentToLower
attr title  "packets sent to lower layer, count"
scalar AODVVANET.vehicle[0].wlan.mac 	sentDownPk:sum(packetBytes) 	6054
attr interpolationmode  none
attr source  packetSentToLower
attr title  "packets sent to lower layer, sum(packetBytes)"
scalar AODVVANET.vehicle[0].wlan.radio 	lossRate:min 	0
attr interpolationmode  backward-sample-hold
attr title  "packet loss rate, min"
scalar AODVVANET.vehicle[0].wlan.radio 	lossRate:max 	0.04
attr interpolationmode  backward-sample-hold
attr title  "packet loss rate, max"
scalar AODVVANET.vehicle[0].wlan.radio 	lossRate:timeavg 	0.017889975879521
attr interpolationmode  backward-sample-hold
attr title  "packet loss rate, timeavg"
statistic AODVVANET.vehicle[0].wlan.radio 	channelNo:histogram
field count 1
field mean 0
field stddev -nan
field sum 0
field sqrsum 0
field min 0
field max 0
attr interpolationmode  sample-hold
attr title  "channel no, histogram"
bin	-INF	0
bin	-0.5	0
bin	-0.46666666666667	0
bin	-0.43333333333333	0
bin	-0.4	0
bin	-0.36666666666667	0
bin	-0.33333333333333	0
bin	-0.3	0
bin	-0.26666666666667	0
bin	-0.23333333333333	0
bin	-0.2	0
bin	-0.16666666666667	0
bin	-0.13333333333333	0
bin	-0.1	0
bin	-0.066666666666667	0
bin	-0.033333333333333	0
bin	0	1
bin	0.033333333333333	0
bin	0.066666666666667	0
bin	0.1	0
bin	0.13333333333333	0
bin	0.16666666666667	0
bin	0.2	0
bin	0.23333333333333	0
bin	0.26666666666667	0
bin	0.3	0
bin	0.33333333333333	0
bin	0.36666666666667	0
bin	0.4	0
bin	0.43333333333333	0
bin	0.46666666666667	0
bin	0.5	0
scalar AODVVANET.vehicle[0].wlan.radio 	bitrate:min 	2000000
attr interpolationmode  sample-hold
attr title  "tx bitrate, min"
attr unit  bps
scalar AODVVANET.vehicle[0].wlan.radio 	bitrate:max 	2000000
attr interpolationmode  sample-hold
attr title  "tx bitrate, max"
attr unit  bps
scalar AODVVANET.vehicle[0].wlan.radio 	bitrate:timeavg 	2000000
attr interpolationmode  sample-hold
attr title  "tx bitrate, timeavg"
attr unit  bps
scalar AODVVANET.vehicle[0].wlan.radio 	radioState:count 	910
attr interpolationmode  sample-hold
attr title  "radio state (enum), count"
scalar AODVVANET.vehicle[0] 	statEndToEndDelay:sum 	2.191432308169
scalar AODVVANET.vehicle[0] 	statPacketReceived:count 	21
scalar AODVVANET.vehicle[0] 	statPacketSent:count 	19
scalar AODVVANET.vehicle[0] 	statAODVRREPSENT:count 	9
scalar AODVVANET.vehicle[0] 	statAODVRREQSENT:count 	21
scalar AODVVANET.vehicle[6].mobility 	startTime 	55
scalar AODVVANET.vehicle[6].mobility 	totalTime 	144
scalar AODVVANET.vehicle[6].mobility 	stopTime 	145
scalar AODVVANET.vehicle[6].mobility 	minSpeed 	3.210501020411
scalar AODVVANET.vehicle[6].mobility 	maxSpeed 	47.564003886478
scalar AODVVANET.vehicle[6].mobility 	totalDistance 	2446.7472710016
scalar AODVVANET.vehicle[6].udp 	droppedPkBadChecksum:count 	0
attr interpolationmode  none
attr title  "packets dropped (checksum error), count"
scalar AODVVANET.vehicle[6].udp 	droppedPkWrongPort:count 	0
attr interpolationmode  none
attr title  "packets dropped (wrong port), count"
scalar AODVVANET.vehicle[6].udp 	passedUpPk:count 	11
attr interpolationmode  none
attr title  "packets passed up, count"
scalar AODVVANET.vehicle[6].udp 	rcvdPk:count 	11
attr interpolationmode  none
attr source  rcvdPk
attr title  "packets received, count"
scalar AODVVANET.vehicle[6].udp 	rcvdPk:sum(packetBytes) 	88
attr interpolationmode  none
attr source  rcvdPk
attr title  "packets received, sum(packetBytes)"
scalar AODVVANET.vehicle[6].udp 	sentPk:count 	6
attr interpolationmode  none
attr source  sentPk
attr title  "packets sent, count"
scalar AODVVANET.vehicle[6].udp 	sentPk:sum(packetBytes) 	48
attr interpolationmode  none
attr source  sentPk
attr title  "packets sent, sum(packetBytes)"
scalar AODVVANET.vehicle[6].networkLayer.arp 	failedARPResolution:count 	0
attr title  "ARP failed resolutions, count"
scalar AODVVANET.vehicle[6].networkLayer.arp 	completedARPResolution:count 	15
attr title  "ARP completed resolutions, count"
scalar AODVVANET.vehicle[6].networkLayer.arp 	initiatedARPResolution:count 	3
attr title  "ARP initiated resolutions, count"
scalar AODVVANET.vehicle[6].networkLayer.arp 	sentReply:count 	4
attr title  "ARP replies sent, count"
scalar AODVVANET.vehicle[6].networkLayer.arp 	sentReq:count 	3
attr title  "ARP request sent, count"
scalar AODVVANET.vehicle[6].wlan.mgmt 	dataQueueLen:max 	0
attr interpolationmode  sample-hold
attr title  "data queue length, max"
scalar AODVVANET.vehicle[6].wlan.mgmt 	dataQueueLen:timeavg 	0
attr interpolationmode  sample-hold
attr title  "data queue length, timeavg"
scalar AODVVANET.vehicle[6].wlan.mgmt 	dropPkByQueue:count 	0
attr interpolationmode  none
attr source  dropPkByQueue
attr title  "packets dropped by queue, count"
scalar AODVVANET.vehicle[6].wlan.mgmt 	dropPkByQueue:sum(packetBytes) 	0
attr interpolationmode  none
attr source  dropPkByQueue
attr title  "packets dropped by queue, sum(packetBytes)"
scalar AODVVANET.vehicle[6].wlan.mac 	"number of received packets" 	33
scalar AODVVANET.vehicle[6].wlan.mac 	"number of collisions" 	9
scalar AODVVANET.vehicle[6].wlan.mac 	"number of internal collisions" 	0
scalar AODVVANET.vehicle[6].wlan.mac 	"number of retry for AC 0" 	6
scalar AODVVANET.vehicle[6].wlan.mac 	"sent and received bits" 	31472
scalar AODVVANET.vehicle[6].wlan.mac 	"sent packet within AC 0" 	25
scalar AODVVANET.vehicle[6].wlan.mac 	"sent in TXOP " 	0
scalar AODVVANET.vehicle[6].wlan.mac 	"sentWithoutRetry AC 0" 	25
scalar AODVVANET.vehicle[6].wlan.mac 	"numGivenUp AC 0" 	1
scalar AODVVANET.vehicle[6].wlan.mac 	"numDropped AC 0" 	0
scalar AODVVANET.vehicle[6].wlan.mac 	rcvdPkFromHL:count 	62
attr interpolationmode  none
attr source  packetReceivedFromUpper
attr title  "packets received from higher layer, count"
scalar AODVVANET.vehicle[6].wlan.mac 	rcvdPkFromHL:sum(packetBytes) 	4004
attr interpolationmode  none
attr source  packetReceivedFromUpper
attr title  "packets received from higher layer, sum(packetBytes)"
scalar AODVVANET.vehicle[6].wlan.mac 	passedUpPk:count 	153
attr interpolationmode  none
attr source  packetSentToUpper
attr title  "packets passed to higher layer, count"
scalar AODVVANET.vehicle[6].wlan.mac 	passedUpPk:sum(packetBytes) 	9750
attr interpolationmode  none
attr source  packetSentToUpper
attr title  "packets passed to higher layer, sum(packetBytes)"
scalar AODVVANET.vehicle[6].wlan.mac 	rcvdPkFromLL:count 	372
attr interpolationmode  none
attr source  packetReceivedFromLower
attr title  "packets received from lower layer, count"
scalar AODVVANET.vehicle[6].wlan.mac 	rcvdPkFromLL:sum(packetBytes) 	18864
attr interpolationmode  none
attr source  packetReceivedFromLower
attr title  "packets received from lower layer, sum(packetBytes)"
scalar AODVVANET.vehicle[6].wlan.mac 	sentDownPk:count 	101
attr interpolationmode  none
attr source  packetSentToLower
attr title  "packets sent to lower layer, count"
scalar AODVVANET.vehicle[6].wlan.mac 	sentDownPk:sum(packetBytes) 	4886
attr interpolationmode  none
attr source  packetSentToLower
attr title  "packets sent to lower layer, sum(packetBytes)"
scalar AODVVANET.vehicle[6].wlan.radio 	lossRate:min 	0
attr interpolationmode  backward-sample-hold
attr title  "packet loss rate, min"
scalar AODVVANET.vehicle[6].wlan.radio 	lossRate:max 	0.08
attr interpolationmode  backward-sample-hold
attr title  "packet loss rate, max"
scalar AODVVANET.vehicle[6].wlan.radio 	lossRate:timeavg 	0.036813483488193
attr interpolationmode  backward-sample-hold
attr title  "packet loss rate, timeavg"
statistic AODVVANET.vehicle[6].wlan.radio 	channelNo:histogram
field count 1
field mean 0
field stddev -nan
field sum 0
field sqrsum 0
field min 0
field max 0
attr interpolationmode  sample-hold
attr title  "channel no, histogram"
bin	-INF	0
bin	-0.5	0
bin	-0.46666666666667	0
bin	-0.43333333333333	0
bin	-0.4	0
bin	-0.36666666666667	0
bin	-0.33333333333333	0
bin	-0.3	0
bin	-0.26666666666667	0
bin	-0.23333333333333	0
bin	-0.2	0
bin	-0.16666666666667	0
bin	-0.13333333333333	0
bin	-0.1	0
bin	-0.066666666666667	0
bin	-0.033333333333333	0
bin	0	1
bin	0.033333333333333	0
bin	0.066666666666667	0
bin	0.1	0
bin	0.13333333333333	0
bin	0.16666666666667	0
bin	0.2	0
bin	0.23333333333333	0
bin	0.26666666666667	0
bin	0.3	0
bin	0.33333333333333	0
bin	0.36666666666667	0
bin	0.4	0
bin	0.43333333333333	0
bin	0.46666666666667	0
bin	0.5	0
scalar AODVVANET.vehicle[6].wlan.radio 	bitrate:min 	2000000
attr interpolationmode  sample-hold
attr title  "tx bitrate, min"
attr unit  bps
scalar AODVVANET.vehicle[6].wlan.radio 	bitrate:max 	2000000
attr interpolationmode  sample-hold
attr title  "tx bitrate, max"
attr unit  bps
scalar AODVVANET.vehicle[6].wlan.radio 	bitrate:timeavg 	2000000
attr interpolationmode  sample-hold
attr title  "tx bitrate, timeavg"
attr unit  bps
scalar AODVVANET.vehicle[6].wlan.radio 	radioState:count 	944
attr interpolationmode  sample-hold
attr title  "radio state (enum), count"
scalar AODVVANET.vehicle[6] 	statEndToEndDelay:sum 	1.507802566114
scalar AODVVANET.vehicle[6] 	statPacketReceived:count 	11
scalar AODVVANET.vehicle[6] 	statPacketSent:count 	6
scalar AODVVANET.vehicle[6] 	statAODVRREPSENT:count 	3
scalar AODVVANET.vehicle[6] 	statAODVRREQSENT:count 	5
scalar AODVVANET.vehicle[7].mobility 	startTime 	64
scalar AODVVANET.vehicle[7].mobility 	totalTime 	150
scalar AODVVANET.vehicle[7].mobility 	stopTime 	151
scalar AODVVANET.vehicle[7].mobility 	minSpeed 	3.0488070065901
scalar AODVVANET.vehicle[7].mobility 	maxSpeed 	54.328439674516
scalar AODVVANET.vehicle[7].mobility 	totalDistance 	2456.8635940502
scalar AODVVANET.vehicle[7].udp 	droppedPkBadChecksum:count 	0
attr interpolationmode  none
attr title  "packets dropped (checksum error), count"
scalar AODVVANET.vehicle[7].udp 	droppedPkWrongPort:count 	0
attr interpolationmode  none
attr title  "packets dropped (wrong port), count"
scalar AODVVANET.vehicle[7].udp 	passedUpPk:count 	4
attr interpolationmode  none
attr title  "packets passed up, count"
scalar AODVVANET.vehicle[7].udp 	rcvdPk:count 	4
attr interpolationmode  none
attr source  rcvdPk
attr title  "packets received, count"
scalar AODVVANET.vehicle[7].udp 	rcvdPk:sum(packetBytes) 	32
attr interpolationmode  none
attr source  rcvdPk
attr title  "packets received, sum(packetBytes)"
scalar AODVVANET.vehicle[7].udp 	sentPk:count 	7
attr interpolationmode  none
attr source  sentPk
attr title  "packets sent, count"
scalar AODVVANET.vehicle[7].udp 	sentPk:sum(packetBytes) 	56
attr interpolationmode  none
attr source  sentPk
attr title  "packets sent, sum(packetBytes)"
scalar AODVVANET.vehicle[7].networkLayer.arp 	failedARPResolution:count 	0
attr title  "ARP failed resolutions, count"
scalar AODVVANET.vehicle[7].networkLayer.arp 	completedARPResolution:count 	13
attr title  "ARP completed resolutions, count"
scalar AODVVANET.vehicle[7].networkLayer.arp 	initiatedARPResolution:count 	4
attr title  "ARP initiated resolutions, count"
scalar AODVVANET.vehicle[7].networkLayer.arp 	sentReply:count 	3
attr title  "ARP replies sent, count"
scalar AODVVANET.vehicle[7].networkLayer.arp 	sentReq:count 	6
attr title  "ARP request sent, count"
scalar AODVVANET.vehicle[7].wlan.mgmt 	dataQueueLen:max 	2
attr interpolationmode  sample-hold
attr title  "data queue length, max"
scalar AODVVANET.vehicle[7].wlan.mgmt 	dataQueueLen:timeavg 	5.690847583908e-05
attr interpolationmode  sample-hold
attr title  "data queue length, timeavg"
scalar AODVVANET.vehicle[7].wlan.mgmt 	dropPkByQueue:count 	0
attr interpolationmode  none
attr source  dropPkByQueue
attr title  "packets dropped by queue, count"
scalar AODVVANET.vehicle[7].wlan.mgmt 	dropPkByQueue:sum(packetBytes) 	0
attr interpolationmode  none
attr source  dropPkByQueue
attr title  "packets dropped by queue, sum(packetBytes)"
scalar AODVVANET.vehicle[7].wlan.mac 	"number of received packets" 	22
scalar AODVVANET.vehicle[7].wlan.mac 	"number of collisions" 	0
scalar AODVVANET.vehicle[7].wlan.mac 	"number of internal collisions" 	0
scalar AODVVANET.vehicle[7].wlan.mac 	"number of retry for AC 0" 	8
scalar AODVVANET.vehicle[7].wlan.mac 	"sent and received bits" 	29616
scalar AODVVANET.vehicle[7].wlan.mac 	"sent packet within AC 0" 	27
scalar AODVVANET.vehicle[7].wlan.mac 	"sent in TXOP " 	0
scalar AODVVANET.vehicle[7].wlan.mac 	"sentWithoutRetry AC 0" 	25
scalar AODVVANET.vehicle[7].wlan.mac 	"numGivenUp AC 0" 	1
scalar AODVVANET.vehicle[7].wlan.mac 	"numDropped AC 0" 	0
scalar AODVVANET.vehicle[7].wlan.mac 	rcvdPkFromHL:count 	58
attr interpolationmode  none
attr source  packetReceivedFromUpper
attr title  "packets received from higher layer, count"
scalar AODVVANET.vehicle[7].wlan.mac 	rcvdPkFromHL:sum(packetBytes) 	3772
attr interpolationmode  none
attr source  packetReceivedFromUpper
attr title  "packets received from higher layer, sum(packetBytes)"
scalar AODVVANET.vehicle[7].wlan.mac 	passedUpPk:count 	129
attr interpolationmode  none
attr source  packetSentToUpper
attr title  "packets passed to higher layer, count"
scalar AODVVANET.vehicle[7].wlan.mac 	passedUpPk:sum(packetBytes) 	8206
attr interpolationmode  none
attr source  packetSentToUpper
attr title  "packets passed to higher layer, sum(packetBytes)"
scalar AODVVANET.vehicle[7].wlan.mac 	rcvdPkFromLL:count 	304
attr interpolationmode  none
attr source  packetReceivedFromLower
attr title  "packets received from lower layer, count"
scalar AODVVANET.vehicle[7].wlan.mac 	rcvdPkFromLL:sum(packetBytes) 	14968
attr interpolationmode  none
attr source  packetReceivedFromLower
attr title  "packets received from lower layer, sum(packetBytes)"
scalar AODVVANET.vehicle[7].wlan.mac 	sentDownPk:count 	88
attr interpolationmode  none
attr source  packetSentToLower
attr title  "packets sent to lower layer, count"
scalar AODVVANET.vehicle[7].wlan.mac 	sentDownPk:sum(packetBytes) 	4624
attr interpolationmode  none
attr source  packetSentToLower
attr title  "packets sent to lower layer, sum(packetBytes)"
scalar AODVVANET.vehicle[7].wlan.radio 	lossRate:min 	0
attr interpolationmode  backward-sample-hold
attr title  "packet loss rate, min"
scalar AODVVANET.vehicle[7].wlan.radio 	lossRate:max 	0.02
attr interpolationmode  backward-sample-hold
attr title  "packet loss rate, max"
scalar AODVVANET.vehicle[7].wlan.radio 	lossRate:timeavg 	0.006696877313249
attr interpolationmode  backward-sample-hold
attr title  "packet loss rate, timeavg"
statistic AODVVANET.vehicle[7].wlan.radio 	channelNo:histogram
field count 1
field mean 0
field stddev -nan
field sum 0
field sqrsum 0
field min 0
field max 0
attr interpolationmode  sample-hold
attr title  "channel no, histogram"
bin	-INF	0
bin	-0.5	0
bin	-0.46666666666667	0
bin	-0.43333333333333	0
bin	-0.4	0
bin	-0.36666666666667	0
bin	-0.33333333333333	0
bin	-0.3	0
bin	-0.26666666666667	0
bin	-0.23333333333333	0
bin	-0.2	0
bin	-0.16666666666667	0
bin	-0.13333333333333	0
bin	-0.1	0
bin	-0.066666666666667	0
bin	-0.033333333333333	0
bin	0	1
bin	0.033333333333333	0
bin	0.066666666666667	0
bin	0.1	0
bin	0.13333333333333	0
bin	0.16666666666667	0
bin	0.2	0
bin	0.23333333333333	0
bin	0.26666666666667	0
bin	0.3	0
bin	0.33333333333333	0
bin	0.36666666666667	0
bin	0.4	0
bin	0.43333333333333	0
bin	0.46666666666667	0
bin	0.5	0
scalar AODVVANET.vehicle[7].wlan.radio 	bitrate:min 	2000000
attr interpolationmode  sample-hold
attr title  "tx bitrate, min"
attr unit  bps
scalar AODVVANET.vehicle[7].wlan.radio 	bitrate:max 	2000000
attr interpolationmode  sample-hold
attr title  "tx bitrate, max"
attr unit  bps
scalar AODVVANET.vehicle[7].wlan.radio 	bitrate:timeavg 	2000000
attr interpolationmode  sample-hold
attr title  "tx bitrate, timeavg"
attr unit  bps
scalar AODVVANET.vehicle[7].wlan.radio 	radioState:count 	788
attr interpolationmode  sample-hold
attr title  "radio state (enum), count"
scalar AODVVANET.vehicle[7] 	statEndToEndDelay:sum 	1.02491677321
scalar AODVVANET.vehicle[7] 	statPacketReceived:count 	4
scalar AODVVANET.vehicle[7] 	statPacketSent:count 	7
scalar AODVVANET.vehicle[7] 	statAODVRREPSENT:count 	7
scalar AODVVANET.vehicle[7] 	statAODVRREQSENT:count 	3
scalar AODVVANET.vehicle[8].mobility 	startTime 	73
scalar AODVVANET.vehicle[8].mobility 	totalTime 	163
scalar AODVVANET.vehicle[8].mobility 	stopTime 	164
scalar AODVVANET.vehicle[8].mobility 	minSpeed 	3.1047639768478
scalar AODVVANET.vehicle[8].mobility 	maxSpeed 	48.684570862688
scalar AODVVANET.vehicle[8].mobility 	totalDistance 	2485.8548785432
scalar AODVVANET.vehicle[8].udp 	droppedPkBadChecksum:count 	0
attr interpolationmode  none
attr title  "packets dropped (checksum error), count"
scalar AODVVANET.vehicle[8].udp 	droppedPkWrongPort:count 	0
attr interpolationmode  none
attr title  "packets dropped (wrong port), count"
scalar AODVVANET.vehicle[8].udp 	passedUpPk:count 	3
attr interpolationmode  none
attr title  "packets passed up, count"
scalar AODVVANET.vehicle[8].udp 	rcvdPk:count 	3
attr interpolationmode  none
attr source  rcvdPk
attr title  "packets received, count"
scalar AODVVANET.vehicle[8].udp 	rcvdPk:sum(packetBytes) 	24
attr interpolationmode  none
attr source  rcvdPk
attr title  "packets received, sum(packetBytes)"
scalar AODVVANET.vehicle[8].udp 	sentPk:count 	5
attr interpolationmode  none
attr source  sentPk
attr title  "packets sent, count"
scalar AODVVANET.vehicle[8].udp 	sentPk:sum(packetBytes) 	40
attr interpolationmode  none
attr source  sentPk
attr title  "packets sent, sum(packetBytes)"
scalar AODVVANET.vehicle[8].networkLayer.arp 	failedARPResolution:count 	0
attr title  "ARP failed resolutions, count"
scalar AODVVANET.vehicle[8].networkLayer.arp 	completedARPResolution:count 	8
attr title  "ARP completed resolutions, count"
scalar AODVVANET.vehicle[8].networkLayer.arp 	initiatedARPResolution:count 	1
attr title  "ARP initiated resolutions, count"
scalar AODVVANET.vehicle[8].networkLayer.arp 	sentReply:count 	4
attr title  "ARP replies sent, count"
scalar AODVVANET.vehicle[8].networkLayer.arp 	sentReq:count 	2
attr title  "ARP request sent, count"
scalar AODVVANET.vehicle[8].wlan.mgmt 	dataQueueLen:max 	0
attr interpolationmode  sample-hold
attr title  "data queue length, max"
scalar AODVVANET.vehicle[8].wlan.mgmt 	dataQueueLen:timeavg 	0
attr interpolationmode  sample-hold
attr title  "data queue length, timeavg"
scalar AODVVANET.vehicle[8].wlan.mgmt 	dropPkByQueue:count 	0
attr interpolationmode  none
attr source  dropPkByQueue
attr title  "packets dropped by queue, count"
scalar AODVVANET.vehicle[8].wlan.mgmt 	dropPkByQueue:sum(packetBytes) 	0
attr interpolationmode  none
attr source  dropPkByQueue
attr title  "packets dropped by queue, sum(packetBytes)"
scalar AODVVANET.vehicle[8].wlan.mac 	"number of received packets" 	21
scalar AODVVANET.vehicle[8].wlan.mac 	"number of collisions" 	7
scalar AODVVANET.vehicle[8].wlan.mac 	"number of internal collisions" 	0
scalar AODVVANET.vehicle[8].wlan.mac 	"number of retry for AC 0" 	4
scalar AODVVANET.vehicle[8].wlan.mac 	"sent and received bits" 	24704
scalar AODVVANET.vehicle[8].wlan.mac 	"sent packet within AC 0" 	19
scalar AODVVANET.vehicle[8].wlan.mac 	"sent in TXOP " 	0
scalar AODVVANET.vehicle[8].wlan.mac 	"sentWithoutRetry AC 0" 	17
scalar AODVVANET.vehicle[8].wlan.mac 	"numGivenUp AC 0" 	0
scalar AODVVANET.vehicle[8].wlan.mac 	"numDropped AC 0" 	0
scalar AODVVANET.vehicle[8].wlan.mac 	rcvdPkFromHL:count 	48
attr interpolationmode  none
attr source  packetReceivedFromUpper
attr title  "packets received from higher layer, count"
scalar AODVVANET.vehicle[8].wlan.mac 	rcvdPkFromHL:sum(packetBytes) 	3088
attr interpolationmode  none
attr source  packetReceivedFromUpper
attr title  "packets received from higher layer, sum(packetBytes)"
scalar AODVVANET.vehicle[8].wlan.mac 	passedUpPk:count 	114
attr interpolationmode  none
attr source  packetSentToUpper
attr title  "packets passed to higher layer, count"
scalar AODVVANET.vehicle[8].wlan.mac 	passedUpPk:sum(packetBytes) 	7236
attr interpolationmode  none
attr source  packetSentToUpper
attr title  "packets passed to higher layer, sum(packetBytes)"
scalar AODVVANET.vehicle[8].wlan.mac 	rcvdPkFromLL:count 	266
attr interpolationmode  none
attr source  packetReceivedFromLower
attr title  "packets received from lower layer, count"
scalar AODVVANET.vehicle[8].wlan.mac 	rcvdPkFromLL:sum(packetBytes) 	13372
attr interpolationmode  none
attr source  packetReceivedFromLower
attr title  "packets received from lower layer, sum(packetBytes)"
scalar AODVVANET.vehicle[8].wlan.mac 	sentDownPk:count 	73
attr interpolationmode  none
attr source  packetSentToLower
attr title  "packets sent to lower layer, count"
scalar AODVVANET.vehicle[8].wlan.mac 	sentDownPk:sum(packetBytes) 	3630
attr interpolationmode  none
attr source  packetSentToLower
attr title  "packets sent to lower layer, sum(packetBytes)"
scalar AODVVANET.vehicle[8].wlan.radio 	lossRate:min 	0
attr interpolationmode  backward-sample-hold
attr title  "packet loss rate, min"
scalar AODVVANET.vehicle[8].wlan.radio 	lossRate:max 	0.1
attr interpolationmode  backward-sample-hold
attr title  "packet loss rate, max"
scalar AODVVANET.vehicle[8].wlan.radio 	lossRate:timeavg 	0.048242037423408
attr interpolationmode  backward-sample-hold
attr title  "packet loss rate, timeavg"
statistic AODVVANET.vehicle[8].wlan.radio 	channelNo:histogram
field count 1
field mean 0
field stddev -nan
field sum 0
field sqrsum 0
field min 0
field max 0
attr interpolationmode  sample-hold
attr title  "channel no, histogram"
bin	-INF	0
bin	-0.5	0
bin	-0.46666666666667	0
bin	-0.43333333333333	0
bin	-0.4	0
bin	-0.36666666666667	0
bin	-0.33333333333333	0
bin	-0.3	0
bin	-0.26666666666667	0
bin	-0.23333333333333	0
bin	-0.2	0
bin	-0.16666666666667	0
bin	-0.13333333333333	0
bin	-0.1	0
bin	-0.066666666666667	0
bin	-0.033333333333333	0
bin	0	1
bin	0.033333333333333	0
bin	0.066666666666667	0
bin	0.1	0
bin	0.13333333333333	0
bin	0.16666666666667	0
bin	0.2	0
bin	0.23333333333333	0
bin	0.26666666666667	0
bin	0.3	0
bin	0.33333333333333	0
bin	0.36666666666667	0
bin	0.4	0
bin	0.43333333333333	0
bin	0.46666666666667	0
bin	0.5	0
scalar AODVVANET.vehicle[8].wlan.radio 	bitrate:min 	2000000
attr interpolationmode  sample-hold
attr title  "tx bitrate, min"
attr unit  bps
scalar AODVVANET.vehicle[8].wlan.radio 	bitrate:max 	2000000
attr interpolationmode  sample-hold
attr title  "tx bitrate, max"
attr unit  bps
scalar AODVVANET.vehicle[8].wlan.radio 	bitrate:timeavg 	2000000
attr interpolationmode  sample-hold
attr title  "tx bitrate, timeavg"
attr unit  bps
scalar AODVVANET.vehicle[8].wlan.radio 	radioState:count 	679
attr interpolationmode  sample-hold
attr title  "radio state (enum), count"
scalar AODVVANET.vehicle[8] 	statEndToEndDelay:sum 	0.013089283212977
scalar AODVVANET.vehicle[8] 	statPacketReceived:count 	3
scalar AODVVANET.vehicle[8] 	statPacketSent:count 	5
scalar AODVVANET.vehicle[8] 	statAODVRREPSENT:count 	3
scalar AODVVANET.vehicle[8] 	statAODVRREQSENT:count 	14
scalar AODVVANET.vehicle[9].mobility 	startTime 	82
scalar AODVVANET.vehicle[9].mobility 	totalTime 	169
scalar AODVVANET.vehicle[9].mobility 	stopTime 	170
scalar AODVVANET.vehicle[9].mobility 	minSpeed 	3.1846875763126
scalar AODVVANET.vehicle[9].mobility 	maxSpeed 	54.431254379068
scalar AODVVANET.vehicle[9].mobility 	totalDistance 	2485.3425115153
scalar AODVVANET.vehicle[9].udp 	droppedPkBadChecksum:count 	0
attr interpolationmode  none
attr title  "packets dropped (checksum error), count"
scalar AODVVANET.vehicle[9].udp 	droppedPkWrongPort:count 	0
attr interpolationmode  none
attr title  "packets dropped (wrong port), count"
scalar AODVVANET.vehicle[9].udp 	passedUpPk:count 	3
attr interpolationmode  none
attr title  "packets passed up, count"
scalar AODVVANET.vehicle[9].udp 	rcvdPk:count 	3
attr interpolationmode  none
attr source  rcvdPk
attr title  "packets received, count"
scalar AODVVANET.vehicle[9].udp 	rcvdPk:sum(packetBytes) 	24
attr interpolationmode  none
attr source  rcvdPk
attr title  "packets received, sum(packetBytes)"
scalar AODVVANET.vehicle[9].udp 	sentPk:count 	5
attr interpolationmode  none
attr source  sentPk
attr title  "packets sent, count"
scalar AODVVANET.vehicle[9].udp 	sentPk:sum(packetBytes) 	40
attr interpolationmode  none
attr source  sentPk
attr title  "packets sent, sum(packetBytes)"
scalar AODVVANET.vehicle[9].networkLayer.arp 	failedARPResolution:count 	0
attr title  "ARP failed resolutions, count"
scalar AODVVANET.vehicle[9].networkLayer.arp 	completedARPResolution:count 	7
attr title  "ARP completed resolutions, count"
scalar AODVVANET.vehicle[9].networkLayer.arp 	initiatedARPResolution:count 	2
attr title  "ARP initiated resolutions, count"
scalar AODVVANET.vehicle[9].networkLayer.arp 	sentReply:count 	2
attr title  "ARP replies sent, count"
scalar AODVVANET.vehicle[9].networkLayer.arp 	sentReq:count 	3
attr title  "ARP request sent, count"
scalar AODVVANET.vehicle[9].wlan.mgmt 	dataQueueLen:max 	1
attr interpolationmode  sample-hold
attr title  "data queue length, max"
scalar AODVVANET.vehicle[9].wlan.mgmt 	dataQueueLen:timeavg 	1.3391192363636e-05
attr interpolationmode  sample-hold
attr title  "data queue length, timeavg"
scalar AODVVANET.vehicle[9].wlan.mgmt 	dropPkByQueue:count 	0
attr interpolationmode  none
attr source  dropPkByQueue
attr title  "packets dropped by queue, count"
scalar AODVVANET.vehicle[9].wlan.mgmt 	dropPkByQueue:sum(packetBytes) 	0
attr interpolationmode  none
attr source  dropPkByQueue
attr title  "packets dropped by queue, sum(packetBytes)"
scalar AODVVANET.vehicle[9].wlan.mac 	"number of received packets" 	14
scalar AODVVANET.vehicle[9].wlan.mac 	"number of collisions" 	8
scalar AODVVANET.vehicle[9].wlan.mac 	"number of internal collisions" 	0
scalar AODVVANET.vehicle[9].wlan.mac 	"number of retry for AC 0" 	0
scalar AODVVANET.vehicle[9].wlan.mac 	"sent and received bits" 	16080
scalar AODVVANET.vehicle[9].wlan.mac 	"sent packet within AC 0" 	14
scalar AODVVANET.vehicle[9].wlan.mac 	"sent in TXOP " 	0
scalar AODVVANET.vehicle[9].wlan.mac 	"sentWithoutRetry AC 0" 	14
scalar AODVVANET.vehicle[9].wlan.mac 	"numGivenUp AC 0" 	0
scalar AODVVANET.vehicle[9].wlan.mac 	"numDropped AC 0" 	0
scalar AODVVANET.vehicle[9].wlan.mac 	rcvdPkFromHL:count 	31
attr interpolationmode  none
attr source  packetReceivedFromUpper
attr title  "packets received from higher layer, count"
scalar AODVVANET.vehicle[9].wlan.mac 	rcvdPkFromHL:sum(packetBytes) 	2010
attr interpolationmode  none
attr source  packetReceivedFromUpper
attr title  "packets received from higher layer, sum(packetBytes)"
scalar AODVVANET.vehicle[9].wlan.mac 	passedUpPk:count 	81
attr interpolationmode  none
attr source  packetSentToUpper
attr title  "packets passed to higher layer, count"
scalar AODVVANET.vehicle[9].wlan.mac 	passedUpPk:sum(packetBytes) 	5134
attr interpolationmode  none
attr source  packetSentToUpper
attr title  "packets passed to higher layer, sum(packetBytes)"
scalar AODVVANET.vehicle[9].wlan.mac 	rcvdPkFromLL:count 	175
attr interpolationmode  none
attr source  packetReceivedFromLower
attr title  "packets received from lower layer, count"
scalar AODVVANET.vehicle[9].wlan.mac 	rcvdPkFromLL:sum(packetBytes) 	8730
attr interpolationmode  none
attr source  packetReceivedFromLower
attr title  "packets received from lower layer, sum(packetBytes)"
scalar AODVVANET.vehicle[9].wlan.mac 	sentDownPk:count 	45
attr interpolationmode  none
attr source  packetSentToLower
attr title  "packets sent to lower layer, count"
scalar AODVVANET.vehicle[9].wlan.mac 	sentDownPk:sum(packetBytes) 	2206
attr interpolationmode  none
attr source  packetSentToLower
attr title  "packets sent to lower layer, sum(packetBytes)"
scalar AODVVANET.vehicle[9].wlan.radio 	lossRate:min 	0
attr interpolationmode  backward-sample-hold
attr title  "packet loss rate, min"
scalar AODVVANET.vehicle[9].wlan.radio 	lossRate:max 	0.16
attr interpolationmode  backward-sample-hold
attr title  "packet loss rate, max"
scalar AODVVANET.vehicle[9].wlan.radio 	lossRate:timeavg 	0.099984516284519
attr interpolationmode  backward-sample-hold
attr title  "packet loss rate, timeavg"
statistic AODVVANET.vehicle[9].wlan.radio 	channelNo:histogram
field count 1
field mean 0
field stddev -nan
field sum 0
field sqrsum 0
field min 0
field max 0
attr interpolationmode  sample-hold
attr title  "channel no, histogram"
bin	-INF	0
bin	-0.5	0
bin	-0.46666666666667	0
bin	-0.43333333333333	0
bin	-0.4	0
bin	-0.36666666666667	0
bin	-0.33333333333333	0
bin	-0.3	0
bin	-0.26666666666667	0
bin	-0.23333333333333	0
bin	-0.2	0
bin	-0.16666666666667	0
bin	-0.13333333333333	0
bin	-0.1	0
bin	-0.066666666666667	0
bin	-0.033333333333333	0
bin	0	1
bin	0.033333333333333	0
bin	0.066666666666667	0
bin	0.1	0
bin	0.13333333333333	0
bin	0.16666666666667	0
bin	0.2	0
bin	0.23333333333333	0
bin	0.26666666666667	0
bin	0.3	0
bin	0.33333333333333	0
bin	0.36666666666667	0
bin	0.4	0
bin	0.43333333333333	0
bin	0.46666666666667	0
bin	0.5	0
scalar AODVVANET.vehicle[9].wlan.radio 	bitrate:min 	2000000
attr interpolationmode  sample-hold
attr title  "tx bitrate, min"
attr unit  bps
scalar AODVVANET.vehicle[9].wlan.radio 	bitrate:max 	2000000
attr interpolationmode  sample-hold
attr title  "tx bitrate, max"
attr unit  bps
scalar AODVVANET.vehicle[9].wlan.radio 	bitrate:timeavg 	2000000
attr interpolationmode  sample-hold
attr title  "tx bitrate, timeavg"
attr unit  bps
scalar AODVVANET.vehicle[9].wlan.radio 	radioState:count 	441
attr interpolationmode  sample-hold
attr title  "radio state (enum), count"
scalar AODVVANET.vehicle[9] 	statEndToEndDelay:sum 	0.34930459405599
scalar AODVVANET.vehicle[9] 	statPacketReceived:count 	3
scalar AODVVANET.vehicle[9] 	statPacketSent:count 	5
scalar AODVVANET.vehicle[9] 	statAODVRREPSENT:count 	6
scalar AODVVANET.vehicle[9] 	statAODVRREQSENT:count 	6
scalar AODVVANET.vehicle[11].mobility 	startTime 	100
scalar AODVVANET.vehicle[11].mobility 	totalTime 	186
scalar AODVVANET.vehicle[11].mobility 	stopTime 	187
scalar AODVVANET.vehicle[11].mobility 	minSpeed 	3.1636712471023
scalar AODVVANET.vehicle[11].mobility 	maxSpeed 	54.576018622638
scalar AODVVANET.vehicle[11].mobility 	totalDistance 	2471.1069199196
scalar AODVVANET.vehicle[11].udp 	droppedPkBadChecksum:count 	0
attr interpolationmode  none
attr title  "packets dropped (checksum error), count"
scalar AODVVANET.vehicle[11].udp 	droppedPkWrongPort:count 	0
attr interpolationmode  none
attr title  "packets dropped (wrong port), count"
scalar AODVVANET.vehicle[11].udp 	passedUpPk:count 	0
attr interpolationmode  none
attr title  "packets passed up, count"
scalar AODVVANET.vehicle[11].udp 	rcvdPk:count 	0
attr interpolationmode  none
attr source  rcvdPk
attr title  "packets received, count"
scalar AODVVANET.vehicle[11].udp 	rcvdPk:sum(packetBytes) 	0
attr interpolationmode  none
attr source  rcvdPk
attr title  "packets received, sum(packetBytes)"
scalar AODVVANET.vehicle[11].udp 	sentPk:count 	0
attr interpolationmode  none
attr source  sentPk
attr title  "packets sent, count"
scalar AODVVANET.vehicle[11].udp 	sentPk:sum(packetBytes) 	0
attr interpolationmode  none
attr source  sentPk
attr title  "packets sent, sum(packetBytes)"
scalar AODVVANET.vehicle[11].networkLayer.arp 	failedARPResolution:count 	1
attr title  "ARP failed resolutions, count"
scalar AODVVANET.vehicle[11].networkLayer.arp 	completedARPResolution:count 	0
attr title  "ARP completed resolutions, count"
scalar AODVVANET.vehicle[11].networkLayer.arp 	initiatedARPResolution:count 	1
attr title  "ARP initiated resolutions, count"
scalar AODVVANET.vehicle[11].networkLayer.arp 	sentReply:count 	0
attr title  "ARP replies sent, count"
scalar AODVVANET.vehicle[11].networkLayer.arp 	sentReq:count 	3
attr title  "ARP request sent, count"
scalar AODVVANET.vehicle[11].wlan.mgmt 	dataQueueLen:max 	0
attr interpolationmode  sample-hold
attr title  "data queue length, max"
scalar AODVVANET.vehicle[11].wlan.mgmt 	dataQueueLen:timeavg 	0
attr interpolationmode  sample-hold
attr title  "data queue length, timeavg"
scalar AODVVANET.vehicle[11].wlan.mgmt 	dropPkByQueue:count 	0
attr interpolationmode  none
attr source  dropPkByQueue
attr title  "packets dropped by queue, count"
scalar AODVVANET.vehicle[11].wlan.mgmt 	dropPkByQueue:sum(packetBytes) 	0
attr interpolationmode  none
attr source  dropPkByQueue
attr title  "packets dropped by queue, sum(packetBytes)"
scalar AODVVANET.vehicle[11].wlan.mac 	"number of received packets" 	0
scalar AODVVANET.vehicle[11].wlan.mac 	"number of collisions" 	0
scalar AODVVANET.vehicle[11].wlan.mac 	"number of internal collisions" 	0
scalar AODVVANET.vehicle[11].wlan.mac 	"number of retry for AC 0" 	0
scalar AODVVANET.vehicle[11].wlan.mac 	"sent and received bits" 	4160
scalar AODVVANET.vehicle[11].wlan.mac 	"sent packet within AC 0" 	0
scalar AODVVANET.vehicle[11].wlan.mac 	"sent in TXOP " 	0
scalar AODVVANET.vehicle[11].wlan.mac 	"sentWithoutRetry AC 0" 	0
scalar AODVVANET.vehicle[11].wlan.mac 	"numGivenUp AC 0" 	0
scalar AODVVANET.vehicle[11].wlan.mac 	"numDropped AC 0" 	0
scalar AODVVANET.vehicle[11].wlan.mac 	rcvdPkFromHL:count 	8
attr interpolationmode  none
attr source  packetReceivedFromUpper
attr title  "packets received from higher layer, count"
scalar AODVVANET.vehicle[11].wlan.mac 	rcvdPkFromHL:sum(packetBytes) 	520
attr interpolationmode  none
attr source  packetReceivedFromUpper
attr title  "packets received from higher layer, sum(packetBytes)"
scalar AODVVANET.vehicle[11].wlan.mac 	passedUpPk:count 	22
attr interpolationmode  none
attr source  packetSentToUpper
attr title  "packets passed to higher layer, count"
scalar AODVVANET.vehicle[11].wlan.mac 	passedUpPk:sum(packetBytes) 	1372
attr interpolationmode  none
attr source  packetSentToUpper
attr title  "packets passed to higher layer, sum(packetBytes)"
scalar AODVVANET.vehicle[11].wlan.mac 	rcvdPkFromLL:count 	53
attr interpolationmode  none
attr source  packetReceivedFromLower
attr title  "packets received from lower layer, count"
scalar AODVVANET.vehicle[11].wlan.mac 	rcvdPkFromLL:sum(packetBytes) 	2686
attr interpolationmode  none
attr source  packetReceivedFromLower
attr title  "packets received from lower layer, sum(packetBytes)"
scalar AODVVANET.vehicle[11].wlan.mac 	sentDownPk:count 	8
attr interpolationmode  none
attr source  packetSentToLower
attr title  "packets sent to lower layer, count"
scalar AODVVANET.vehicle[11].wlan.mac 	sentDownPk:sum(packetBytes) 	520
attr interpolationmode  none
attr source  packetSentToLower
attr title  "packets sent to lower layer, sum(packetBytes)"
scalar AODVVANET.vehicle[11].wlan.radio 	lossRate:min 	0
attr interpolationmode  backward-sample-hold
attr title  "packet loss rate, min"
scalar AODVVANET.vehicle[11].wlan.radio 	lossRate:max 	0
attr interpolationmode  backward-sample-hold
attr title  "packet loss rate, max"
scalar AODVVANET.vehicle[11].wlan.radio 	lossRate:timeavg 	0
attr interpolationmode  backward-sample-hold
attr title  "packet loss rate, timeavg"
statistic AODVVANET.vehicle[11].wlan.radio 	channelNo:histogram
field count 1
field mean 0
field stddev -nan
field sum 0
field sqrsum 0
field min 0
field max 0
attr interpolationmode  sample-hold
attr title  "channel no, histogram"
bin	-INF	0
bin	-0.5	0
bin	-0.46666666666667	0
bin	-0.43333333333333	0
bin	-0.4	0
bin	-0.36666666666667	0
bin	-0.33333333333333	0
bin	-0.3	0
bin	-0.26666666666667	0
bin	-0.23333333333333	0
bin	-0.2	0
bin	-0.16666666666667	0
bin	-0.13333333333333	0
bin	-0.1	0
bin	-0.066666666666667	0
bin	-0.033333333333333	0
bin	0	1
bin	0.033333333333333	0
bin	0.066666666666667	0
bin	0.1	0
bin	0.13333333333333	0
bin	0.16666666666667	0
bin	0.2	0
bin	0.23333333333333	0
bin	0.26666666666667	0
bin	0.3	0
bin	0.33333333333333	0
bin	0.36666666666667	0
bin	0.4	0
bin	0.43333333333333	0
bin	0.46666666666667	0
bin	0.5	0
scalar AODVVANET.vehicle[11].wlan.radio 	bitrate:min 	2000000
attr interpolationmode  sample-hold
attr title  "tx bitrate, min"
attr unit  bps
scalar AODVVANET.vehicle[11].wlan.radio 	bitrate:max 	2000000
attr interpolationmode  sample-hold
attr title  "tx bitrate, max"
attr unit  bps
scalar AODVVANET.vehicle[11].wlan.radio 	bitrate:timeavg 	2000000
attr interpolationmode  sample-hold
attr title  "tx bitrate, timeavg"
attr unit  bps
scalar AODVVANET.vehicle[11].wlan.radio 	radioState:count 	126
attr interpolationmode  sample-hold
attr title  "radio state (enum), count"
scalar AODVVANET.vehicle[11] 	statEndToEndDelay:sum 	0
scalar AODVVANET.vehicle[11] 	statPacketReceived:count 	0
scalar AODVVANET.vehicle[11] 	statPacketSent:count 	0
scalar AODVVANET.vehicle[11] 	statAODVRREPSENT:count 	1
scalar AODVVANET.vehicle[11] 	statAODVRREQSENT:count 	0
scalar AODVVANET.vehicle[12].mobility 	startTime 	109
scalar AODVVANET.vehicle[12].mobility 	totalTime 	198
scalar AODVVANET.vehicle[12].mobility 	stopTime 	199
scalar AODVVANET.vehicle[12].mobility 	minSpeed 	3.0971754802018
scalar AODVVANET.vehicle[12].mobility 	maxSpeed 	48.722837972787
scalar AODVVANET.vehicle[12].mobility 	totalDistance 	2461.5675566431
scalar AODVVANET.vehicle[12].udp 	droppedPkBadChecksum:count 	0
attr interpolationmode  none
attr title  "packets dropped (checksum error), count"
scalar AODVVANET.vehicle[12].udp 	droppedPkWrongPort:count 	0
attr interpolationmode  none
attr title  "packets dropped (wrong port), count"
scalar AODVVANET.vehicle[12].udp 	passedUpPk:count 	0
attr interpolationmode  none
attr title  "packets passed up, count"
scalar AODVVANET.vehicle[12].udp 	rcvdPk:count 	0
attr interpolationmode  none
attr source  rcvdPk
attr title  "packets received, count"
scalar AODVVANET.vehicle[12].udp 	rcvdPk:sum(packetBytes) 	0
attr interpolationmode  none
attr source  rcvdPk
attr title  "packets received, sum(packetBytes)"
scalar AODVVANET.vehicle[12].udp 	sentPk:count 	0
attr interpolationmode  none
attr source  sentPk
attr title  "packets sent, count"
scalar AODVVANET.vehicle[12].udp 	sentPk:sum(packetBytes) 	0
attr interpolationmode  none
attr source  sentPk
attr title  "packets sent, sum(packetBytes)"
scalar AODVVANET.vehicle[12].networkLayer.arp 	failedARPResolution:count 	1
attr title  "ARP failed resolutions, count"
scalar AODVVANET.vehicle[12].networkLayer.arp 	completedARPResolution:count 	0
attr title  "ARP completed resolutions, count"
scalar AODVVANET.vehicle[12].networkLayer.arp 	initiatedARPResolution:count 	1
attr title  "ARP initiated resolutions, count"
scalar AODVVANET.vehicle[12].networkLayer.arp 	sentReply:count 	0
attr title  "ARP replies sent, count"
scalar AODVVANET.vehicle[12].networkLayer.arp 	sentReq:count 	3
attr title  "ARP request sent, count"
scalar AODVVANET.vehicle[12].wlan.mgmt 	dataQueueLen:max 	0
attr interpolationmode  sample-hold
attr title  "data queue length, max"
scalar AODVVANET.vehicle[12].wlan.mgmt 	dataQueueLen:timeavg 	0
attr interpolationmode  sample-hold
attr title  "data queue length, timeavg"
scalar AODVVANET.vehicle[12].wlan.mgmt 	dropPkByQueue:count 	0
attr interpolationmode  none
attr source  dropPkByQueue
attr title  "packets dropped by queue, count"
scalar AODVVANET.vehicle[12].wlan.mgmt 	dropPkByQueue:sum(packetBytes) 	0
attr interpolationmode  none
attr source  dropPkByQueue
attr title  "packets dropped by queue, sum(packetBytes)"
scalar AODVVANET.vehicle[12].wlan.mac 	"number of received packets" 	0
scalar AODVVANET.vehicle[12].wlan.mac 	"number of collisions" 	0
scalar AODVVANET.vehicle[12].wlan.mac 	"number of internal collisions" 	0
scalar AODVVANET.vehicle[12].wlan.mac 	"number of retry for AC 0" 	0
scalar AODVVANET.vehicle[12].wlan.mac 	"sent and received bits" 	3664
scalar AODVVANET.vehicle[12].wlan.mac 	"sent packet within AC 0" 	0
scalar AODVVANET.vehicle[12].wlan.mac 	"sent in TXOP " 	0
scalar AODVVANET.vehicle[12].wlan.mac 	"sentWithoutRetry AC 0" 	0
scalar AODVVANET.vehicle[12].wlan.mac 	"numGivenUp AC 0" 	0
scalar AODVVANET.vehicle[12].wlan.mac 	"numDropped AC 0" 	0
scalar AODVVANET.vehicle[12].wlan.mac 	rcvdPkFromHL:count 	7
attr interpolationmode  none
attr source  packetReceivedFromUpper
attr title  "packets received from higher layer, count"
scalar AODVVANET.vehicle[12].wlan.mac 	rcvdPkFromHL:sum(packetBytes) 	458
attr interpolationmode  none
attr source  packetReceivedFromUpper
attr title  "packets received from higher layer, sum(packetBytes)"
scalar AODVVANET.vehicle[12].wlan.mac 	passedUpPk:count 	20
attr interpolationmode  none
attr source  packetSentToUpper
attr title  "packets passed to higher layer, count"
scalar AODVVANET.vehicle[12].wlan.mac 	passedUpPk:sum(packetBytes) 	1248
attr interpolationmode  none
attr source  packetSentToUpper
attr title  "packets passed to higher layer, sum(packetBytes)"
scalar AODVVANET.vehicle[12].wlan.mac 	rcvdPkFromLL:count 	47
attr interpolationmode  none
attr source  packetReceivedFromLower
attr title  "packets received from lower layer, count"
scalar AODVVANET.vehicle[12].wlan.mac 	rcvdPkFromLL:sum(packetBytes) 	2338
attr interpolationmode  none
attr source  packetReceivedFromLower
attr title  "packets received from lower layer, sum(packetBytes)"
[...]
scalar AODVVANET.vehicle[64].udp 	droppedPkWrongPort:count 	0
attr interpolationmode  none
attr title  "packets dropped (wrong port), count"
scalar AODVVANET.vehicle[64].udp 	passedUpPk:count 	0
attr interpolationmode  none
attr title  "packets passed up, count"
scalar AODVVANET.vehicle[64].udp 	rcvdPk:count 	0
attr interpolationmode  none
attr source  rcvdPk
attr title  "packets received, count"
scalar AODVVANET.vehicle[64].udp 	rcvdPk:sum(packetBytes) 	0
attr interpolationmode  none
attr source  rcvdPk
attr title  "packets received, sum(packetBytes)"
scalar AODVVANET.vehicle[64].udp 	sentPk:count 	0
attr interpolationmode  none
attr source  sentPk
attr title  "packets sent, count"
scalar AODVVANET.vehicle[64].udp 	sentPk:sum(packetBytes) 	0
attr interpolationmode  none
attr source  sentPk
attr title  "packets sent, sum(packetBytes)"
scalar AODVVANET.vehicle[64].networkLayer.arp 	failedARPResolution:count 	0
attr title  "ARP failed resolutions, count"
scalar AODVVANET.vehicle[64].networkLayer.arp 	completedARPResolution:count 	0
attr title  "ARP completed resolutions, count"
scalar AODVVANET.vehicle[64].networkLayer.arp 	initiatedARPResolution:count 	0
attr title  "ARP initiated resolutions, count"
scalar AODVVANET.vehicle[64].networkLayer.arp 	sentReply:count 	0
attr title  "ARP replies sent, count"
scalar AODVVANET.vehicle[64].networkLayer.arp 	sentReq:count 	0
attr title  "ARP request sent, count"
scalar AODVVANET.vehicle[64].wlan.mgmt 	dataQueueLen:max 	0
attr interpolationmode  sample-hold
attr title  "data queue length, max"
scalar AODVVANET.vehicle[64].wlan.mgmt 	dataQueueLen:timeavg 	0
attr interpolationmode  sample-hold
attr title  "data queue length, timeavg"
scalar AODVVANET.vehicle[64].wlan.mgmt 	dropPkByQueue:count 	0
attr interpolationmode  none
attr source  dropPkByQueue
attr title  "packets dropped by queue, count"
scalar AODVVANET.vehicle[64].wlan.mgmt 	dropPkByQueue:sum(packetBytes) 	0
attr interpolationmode  none
attr source  dropPkByQueue
attr title  "packets dropped by queue, sum(packetBytes)"
scalar AODVVANET.vehicle[64].wlan.mac 	"number of received packets" 	0
scalar AODVVANET.vehicle[64].wlan.mac 	"number of collisions" 	0
scalar AODVVANET.vehicle[64].wlan.mac 	"number of internal collisions" 	0
scalar AODVVANET.vehicle[64].wlan.mac 	"number of retry for AC 0" 	0
scalar AODVVANET.vehicle[64].wlan.mac 	"sent and received bits" 	0
scalar AODVVANET.vehicle[64].wlan.mac 	"sent packet within AC 0" 	0
scalar AODVVANET.vehicle[64].wlan.mac 	"sent in TXOP " 	0
scalar AODVVANET.vehicle[64].wlan.mac 	"sentWithoutRetry AC 0" 	0
scalar AODVVANET.vehicle[64].wlan.mac 	"numGivenUp AC 0" 	0
scalar AODVVANET.vehicle[64].wlan.mac 	"numDropped AC 0" 	0
scalar AODVVANET.vehicle[64].wlan.mac 	rcvdPkFromHL:count 	0
attr interpolationmode  none
attr source  packetReceivedFromUpper
attr title  "packets received from higher layer, count"
scalar AODVVANET.vehicle[64].wlan.mac 	rcvdPkFromHL:sum(packetBytes) 	0
attr interpolationmode  none
attr source  packetReceivedFromUpper
attr title  "packets received from higher layer, sum(packetBytes)"
scalar AODVVANET.vehicle[64].wlan.mac 	passedUpPk:count 	0
attr interpolationmode  none
attr source  packetSentToUpper
attr title  "packets passed to higher layer, count"
scalar AODVVANET.vehicle[64].wlan.mac 	passedUpPk:sum(packetBytes) 	0
attr interpolationmode  none
attr source  packetSentToUpper
attr title  "packets passed to higher layer, sum(packetBytes)"
scalar AODVVANET.vehicle[64].wlan.mac 	rcvdPkFromLL:count 	0
attr interpolationmode  none
attr source  packetReceivedFromLower
attr title  "packets received from lower layer, count"
scalar AODVVANET.vehicle[64].wlan.mac 	rcvdPkFromLL:sum(packetBytes) 	0
attr interpolationmode  none
attr source  packetReceivedFromLower
attr title  "packets received from lower layer, sum(packetBytes)"
scalar AODVVANET.vehicle[64].wlan.mac 	sentDownPk:count 	0
attr interpolationmode  none
attr source  packetSentToLower
attr title  "packets sent to lower layer, count"
scalar AODVVANET.vehicle[64].wlan.mac 	sentDownPk:sum(packetBytes) 	0
attr interpolationmode  none
attr source  packetSentToLower
attr title  "packets sent to lower layer, sum(packetBytes)"
scalar AODVVANET.vehicle[64].wlan.radio 	lossRate:min 	-nan
attr interpolationmode  backward-sample-hold
attr title  "packet loss rate, min"
scalar AODVVANET.vehicle[64].wlan.radio 	lossRate:max 	-nan
attr interpolationmode  backward-sample-hold
attr title  "packet loss rate, max"
scalar AODVVANET.vehicle[64].wlan.radio 	lossRate:timeavg 	-nan
attr interpolationmode  backward-sample-hold
attr title  "packet loss rate, timeavg"
statistic AODVVANET.vehicle[64].wlan.radio 	channelNo:histogram
field count 1
field mean 0
field stddev -nan
field sum 0
field sqrsum 0
field min 0
field max 0
attr interpolationmode  sample-hold
attr title  "channel no, histogram"
bin	-INF	0
bin	-0.5	0
bin	-0.46666666666667	0
bin	-0.43333333333333	0
bin	-0.4	0
bin	-0.36666666666667	0
bin	-0.33333333333333	0
bin	-0.3	0
bin	-0.26666666666667	0
bin	-0.23333333333333	0
bin	-0.2	0
bin	-0.16666666666667	0
bin	-0.13333333333333	0
bin	-0.1	0
bin	-0.066666666666667	0
bin	-0.033333333333333	0
bin	0	1
bin	0.033333333333333	0
bin	0.066666666666667	0
bin	0.1	0
bin	0.13333333333333	0
bin	0.16666666666667	0
bin	0.2	0
bin	0.23333333333333	0
bin	0.26666666666667	0
bin	0.3	0
bin	0.33333333333333	0
bin	0.36666666666667	0
bin	0.4	0
bin	0.43333333333333	0
bin	0.46666666666667	0
bin	0.5	0
scalar AODVVANET.vehicle[64].wlan.radio 	bitrate:min 	2000000
attr interpolationmode  sample-hold
attr title  "tx bitrate, min"
attr unit  bps
scalar AODVVANET.vehicle[64].wlan.radio 	bitrate:max 	2000000
attr interpolationmode  sample-hold
attr title  "tx bitrate, max"
attr unit  bps
scalar AODVVANET.vehicle[64].wlan.radio 	bitrate:timeavg 	2000000
attr interpolationmode  sample-hold
attr title  "tx bitrate, timeavg"
attr unit  bps
scalar AODVVANET.vehicle[64].wlan.radio 	radioState:count 	1
attr interpolationmode  sample-hold
attr title  "radio state (enum), count"
scalar AODVVANET.vehicle[64] 	statEndToEndDelay:sum 	0
scalar AODVVANET.vehicle[64] 	statPacketReceived:count 	0
scalar AODVVANET.vehicle[64] 	statPacketSent:count 	0
scalar AODVVANET.vehicle[64] 	statAODVRREPSENT:count 	0
scalar AODVVANET.vehicle[64] 	statAODVRREQSENT:count 	0
scalar AODVVANET.vehicle[65].mobility 	startTime 	586
scalar AODVVANET.vehicle[65].mobility 	totalTime 	599
scalar AODVVANET.vehicle[65].mobility 	stopTime 	600
scalar AODVVANET.vehicle[65].mobility 	minSpeed 	3.0314675292652
scalar AODVVANET.vehicle[65].mobility 	maxSpeed 	10.315693437131
scalar AODVVANET.vehicle[65].mobility 	totalDistance 	82.779449670289
scalar AODVVANET.vehicle[65].udp 	droppedPkBadChecksum:count 	0
attr interpolationmode  none
attr title  "packets dropped (checksum error), count"
scalar AODVVANET.vehicle[65].udp 	droppedPkWrongPort:count 	0
attr interpolationmode  none
attr title  "packets dropped (wrong port), count"
scalar AODVVANET.vehicle[65].udp 	passedUpPk:count 	0
attr interpolationmode  none
attr title  "packets passed up, count"
scalar AODVVANET.vehicle[65].udp 	rcvdPk:count 	0
attr interpolationmode  none
attr source  rcvdPk
attr title  "packets received, count"
scalar AODVVANET.vehicle[65].udp 	rcvdPk:sum(packetBytes) 	0
attr interpolationmode  none
attr source  rcvdPk
attr title  "packets received, sum(packetBytes)"
scalar AODVVANET.vehicle[65].udp 	sentPk:count 	0
attr interpolationmode  none
attr source  sentPk
attr title  "packets sent, count"
scalar AODVVANET.vehicle[65].udp 	sentPk:sum(packetBytes) 	0
attr interpolationmode  none
attr source  sentPk
attr title  "packets sent, sum(packetBytes)"
scalar AODVVANET.vehicle[65].networkLayer.arp 	failedARPResolution:count 	0
attr title  "ARP failed resolutions, count"
scalar AODVVANET.vehicle[65].networkLayer.arp 	completedARPResolution:count 	0
attr title  "ARP completed resolutions, count"
scalar AODVVANET.vehicle[65].networkLayer.arp 	initiatedARPResolution:count 	0
attr title  "ARP initiated resolutions, count"
scalar AODVVANET.vehicle[65].networkLayer.arp 	sentReply:count 	0
attr title  "ARP replies sent, count"
scalar AODVVANET.vehicle[65].networkLayer.arp 	sentReq:count 	0
attr title  "ARP request sent, count"
scalar AODVVANET.vehicle[65].wlan.mgmt 	dataQueueLen:max 	0
attr interpolationmode  sample-hold
attr title  "data queue length, max"
scalar AODVVANET.vehicle[65].wlan.mgmt 	dataQueueLen:timeavg 	0
attr interpolationmode  sample-hold
attr title  "data queue length, timeavg"
scalar AODVVANET.vehicle[65].wlan.mgmt 	dropPkByQueue:count 	0
attr interpolationmode  none
attr source  dropPkByQueue
attr title  "packets dropped by queue, count"
scalar AODVVANET.vehicle[65].wlan.mgmt 	dropPkByQueue:sum(packetBytes) 	0
attr interpolationmode  none
attr source  dropPkByQueue
attr title  "packets dropped by queue, sum(packetBytes)"
scalar AODVVANET.vehicle[65].wlan.mac 	"number of received packets" 	0
scalar AODVVANET.vehicle[65].wlan.mac 	"number of collisions" 	0
scalar AODVVANET.vehicle[65].wlan.mac 	"number of internal collisions" 	0
scalar AODVVANET.vehicle[65].wlan.mac 	"number of retry for AC 0" 	0
scalar AODVVANET.vehicle[65].wlan.mac 	"sent and received bits" 	0
scalar AODVVANET.vehicle[65].wlan.mac 	"sent packet within AC 0" 	0
scalar AODVVANET.vehicle[65].wlan.mac 	"sent in TXOP " 	0
scalar AODVVANET.vehicle[65].wlan.mac 	"sentWithoutRetry AC 0" 	0
scalar AODVVANET.vehicle[65].wlan.mac 	"numGivenUp AC 0" 	0
scalar AODVVANET.vehicle[65].wlan.mac 	"numDropped AC 0" 	0
scalar AODVVANET.vehicle[65].wlan.mac 	rcvdPkFromHL:count 	0
attr interpolationmode  none
attr source  packetReceivedFromUpper
attr title  "packets received from higher layer, count"
scalar AODVVANET.vehicle[65].wlan.mac 	rcvdPkFromHL:sum(packetBytes) 	0
attr interpolationmode  none
attr source  packetReceivedFromUpper
attr title  "packets received from higher layer, sum(packetBytes)"
scalar AODVVANET.vehicle[65].wlan.mac 	passedUpPk:count 	0
attr interpolationmode  none
attr source  packetSentToUpper
attr title  "packets passed to higher layer, count"
scalar AODVVANET.vehicle[65].wlan.mac 	passedUpPk:sum(packetBytes) 	0
attr interpolationmode  none
attr source  packetSentToUpper
attr title  "packets passed to higher layer, sum(packetBytes)"
scalar AODVVANET.vehicle[65].wlan.mac 	rcvdPkFromLL:count 	0
attr interpolationmode  none
attr source  packetReceivedFromLower
attr title  "packets received from lower layer, count"
scalar AODVVANET.vehicle[65].wlan.mac 	rcvdPkFromLL:sum(packetBytes) 	0
attr interpolationmode  none
attr source  packetReceivedFromLower
attr title  "packets received from lower layer, sum(packetBytes)"
scalar AODVVANET.vehicle[65].wlan.mac 	sentDownPk:count 	0
attr interpolationmode  none
attr source  packetSentToLower
attr title  "packets sent to lower layer, count"
scalar AODVVANET.vehicle[65].wlan.mac 	sentDownPk:sum(packetBytes) 	0
attr interpolationmode  none
attr source  packetSentToLower
attr title  "packets sent to lower layer, sum(packetBytes)"
scalar AODVVANET.vehicle[65].wlan.radio 	lossRate:min 	-nan
attr interpolationmode  backward-sample-hold
attr title  "packet loss rate, min"
scalar AODVVANET.vehicle[65].wlan.radio 	lossRate:max 	-nan
attr interpolationmode  backward-sample-hold
attr title  "packet loss rate, max"
scalar AODVVANET.vehicle[65].wlan.radio 	lossRate:timeavg 	-nan
attr interpolationmode  backward-sample-hold
attr title  "packet loss rate, timeavg"
statistic AODVVANET.vehicle[65].wlan.radio 	channelNo:histogram
field count 1
field mean 0
field stddev -nan
field sum 0
field sqrsum 0
field min 0
field max 0
attr interpolationmode  sample-hold
attr title  "channel no, histogram"
bin	-INF	0
bin	-0.5	0
bin	-0.46666666666667	0
bin	-0.43333333333333	0
bin	-0.4	0
bin	-0.36666666666667	0
bin	-0.33333333333333	0
bin	-0.3	0
bin	-0.26666666666667	0
bin	-0.23333333333333	0
bin	-0.2	0
bin	-0.16666666666667	0
bin	-0.13333333333333	0
bin	-0.1	0
bin	-0.066666666666667	0
bin	-0.033333333333333	0
bin	0	1
bin	0.033333333333333	0
bin	0.066666666666667	0
bin	0.1	0
bin	0.13333333333333	0
bin	0.16666666666667	0
bin	0.2	0
bin	0.23333333333333	0
bin	0.26666666666667	0
bin	0.3	0
bin	0.33333333333333	0
bin	0.36666666666667	0
bin	0.4	0
bin	0.43333333333333	0
bin	0.46666666666667	0
bin	0.5	0
scalar AODVVANET.vehicle[65].wlan.radio 	bitrate:min 	2000000
attr interpolationmode  sample-hold
attr title  "tx bitrate, min"
attr unit  bps
scalar AODVVANET.vehicle[65].wlan.radio 	bitrate:max 	2000000
attr interpolationmode  sample-hold
attr title  "tx bitrate, max"
attr unit  bps
scalar AODVVANET.vehicle[65].wlan.radio 	bitrate:timeavg 	2000000
attr interpolationmode  sample-hold
attr title  "tx bitrate, timeavg"
attr unit  bps
scalar AODVVANET.vehicle[65].wlan.radio 	radioState:count 	1
attr interpolationmode  sample-hold
attr title  "radio state (enum), count"
scalar AODVVANET.vehicle[65] 	statEndToEndDelay:sum 	0
scalar AODVVANET.vehicle[65] 	statPacketReceived:count 	0
scalar AODVVANET.vehicle[65] 	statPacketSent:count 	0
scalar AODVVANET.vehicle[65] 	statAODVRREPSENT:count 	0
scalar AODVVANET.vehicle[65] 	statAODVRREQSENT:count 	0
scalar AODVVANET.vehicle[66].mobility 	startTime 	595
scalar AODVVANET.vehicle[66].mobility 	totalTime 	599
scalar AODVVANET.vehicle[66].mobility 	stopTime 	600
scalar AODVVANET.vehicle[66].mobility 	minSpeed 	3.0941687699966
scalar AODVVANET.vehicle[66].mobility 	maxSpeed 	4.9178900878225
scalar AODVVANET.vehicle[66].mobility 	totalDistance 	14.944628774989
scalar AODVVANET.vehicle[66].udp 	droppedPkBadChecksum:count 	0
attr interpolationmode  none
attr title  "packets dropped (checksum error), count"
scalar AODVVANET.vehicle[66].udp 	droppedPkWrongPort:count 	0
attr interpolationmode  none
attr title  "packets dropped (wrong port), count"
scalar AODVVANET.vehicle[66].udp 	passedUpPk:count 	0
attr interpolationmode  none
attr title  "packets passed up, count"
scalar AODVVANET.vehicle[66].udp 	rcvdPk:count 	0
attr interpolationmode  none
attr source  rcvdPk
attr title  "packets received, count"
scalar AODVVANET.vehicle[66].udp 	rcvdPk:sum(packetBytes) 	0
attr interpolationmode  none
attr source  rcvdPk
attr title  "packets received, sum(packetBytes)"
scalar AODVVANET.vehicle[66].udp 	sentPk:count 	0
attr interpolationmode  none
attr source  sentPk
attr title  "packets sent, count"
scalar AODVVANET.vehicle[66].udp 	sentPk:sum(packetBytes) 	0
attr interpolationmode  none
attr source  sentPk
attr title  "packets sent, sum(packetBytes)"
scalar AODVVANET.vehicle[66].networkLayer.arp 	failedARPResolution:count 	0
attr title  "ARP failed resolutions, count"
scalar AODVVANET.vehicle[66].networkLayer.arp 	completedARPResolution:count 	0
attr title  "ARP completed resolutions, count"
scalar AODVVANET.vehicle[66].networkLayer.arp 	initiatedARPResolution:count 	0
attr title  "ARP initiated resolutions, count"
scalar AODVVANET.vehicle[66].networkLayer.arp 	sentReply:count 	0
attr title  "ARP replies sent, count"
scalar AODVVANET.vehicle[66].networkLayer.arp 	sentReq:count 	0
attr title  "ARP request sent, count"
scalar AODVVANET.vehicle[66].wlan.mgmt 	dataQueueLen:max 	0
attr interpolationmode  sample-hold
attr title  "data queue length, max"
scalar AODVVANET.vehicle[66].wlan.mgmt 	dataQueueLen:timeavg 	0
attr interpolationmode  sample-hold
attr title  "data queue length, timeavg"
scalar AODVVANET.vehicle[66].wlan.mgmt 	dropPkByQueue:count 	0
attr interpolationmode  none
attr source  dropPkByQueue
attr title  "packets dropped by queue, count"
scalar AODVVANET.vehicle[66].wlan.mgmt 	dropPkByQueue:sum(packetBytes) 	0
attr interpolationmode  none
attr source  dropPkByQueue
attr title  "packets dropped by queue, sum(packetBytes)"
scalar AODVVANET.vehicle[66].wlan.mac 	"number of received packets" 	0
scalar AODVVANET.vehicle[66].wlan.mac 	"number of collisions" 	0
scalar AODVVANET.vehicle[66].wlan.mac 	"number of internal collisions" 	0
scalar AODVVANET.vehicle[66].wlan.mac 	"number of retry for AC 0" 	0
scalar AODVVANET.vehicle[66].wlan.mac 	"sent and received bits" 	0
scalar AODVVANET.vehicle[66].wlan.mac 	"sent packet within AC 0" 	0
scalar AODVVANET.vehicle[66].wlan.mac 	"sent in TXOP " 	0
scalar AODVVANET.vehicle[66].wlan.mac 	"sentWithoutRetry AC 0" 	0
scalar AODVVANET.vehicle[66].wlan.mac 	"numGivenUp AC 0" 	0
scalar AODVVANET.vehicle[66].wlan.mac 	"numDropped AC 0" 	0
scalar AODVVANET.vehicle[66].wlan.mac 	rcvdPkFromHL:count 	0
attr interpolationmode  none
attr source  packetReceivedFromUpper
attr title  "packets received from higher layer, count"
scalar AODVVANET.vehicle[66].wlan.mac 	rcvdPkFromHL:sum(packetBytes) 	0
attr interpolationmode  none
attr source  packetReceivedFromUpper
attr title  "packets received from higher layer, sum(packetBytes)"
scalar AODVVANET.vehicle[66].wlan.mac 	passedUpPk:count 	0
attr interpolationmode  none
attr source  packetSentToUpper
attr title  "packets passed to higher layer, count"
scalar AODVVANET.vehicle[66].wlan.mac 	passedUpPk:sum(packetBytes) 	0
attr interpolationmode  none
attr source  packetSentToUpper
attr title  "packets passed to higher layer, sum(packetBytes)"
scalar AODVVANET.vehicle[66].wlan.mac 	rcvdPkFromLL:count 	0
attr interpolationmode  none
attr source  packetReceivedFromLower
attr title  "packets received from lower layer, count"
scalar AODVVANET.vehicle[66].wlan.mac 	rcvdPkFromLL:sum(packetBytes) 	0
attr interpolationmode  none
attr source  packetReceivedFromLower
attr title  "packets received from lower layer, sum(packetBytes)"
scalar AODVVANET.vehicle[66].wlan.mac 	sentDownPk:count 	0
attr interpolationmode  none
attr source  packetSentToLower
attr title  "packets sent to lower layer, count"
scalar AODVVANET.vehicle[66].wlan.mac 	sentDownPk:sum(packetBytes) 	0
attr interpolationmode  none
attr source  packetSentToLower
attr title  "packets sent to lower layer, sum(packetBytes)"
scalar AODVVANET.vehicle[66].wlan.radio 	lossRate:min 	-nan
attr interpolationmode  backward-sample-hold
attr title  "packet loss rate, min"
scalar AODVVANET.vehicle[66].wlan.radio 	lossRate:max 	-nan
attr interpolationmode  backward-sample-hold
attr title  "packet loss rate, max"
scalar AODVVANET.vehicle[66].wlan.radio 	lossRate:timeavg 	-nan
attr interpolationmode  backward-sample-hold
attr title  "packet loss rate, timeavg"
statistic AODVVANET.vehicle[66].wlan.radio 	channelNo:histogram
field count 1
field mean 0
field stddev -nan
field sum 0
field sqrsum 0
field min 0
field max 0
attr interpolationmode  sample-hold
attr title  "channel no, histogram"
bin	-INF	0
bin	-0.5	0
bin	-0.46666666666667	0
bin	-0.43333333333333	0
bin	-0.4	0
bin	-0.36666666666667	0
bin	-0.33333333333333	0
bin	-0.3	0
bin	-0.26666666666667	0
bin	-0.23333333333333	0
bin	-0.2	0
bin	-0.16666666666667	0
bin	-0.13333333333333	0
bin	-0.1	0
bin	-0.066666666666667	0
bin	-0.033333333333333	0
bin	0	1
bin	0.033333333333333	0
bin	0.066666666666667	0
bin	0.1	0
bin	0.13333333333333	0
bin	0.16666666666667	0
bin	0.2	0
bin	0.23333333333333	0
bin	0.26666666666667	0
bin	0.3	0
bin	0.33333333333333	0
bin	0.36666666666667	0
bin	0.4	0
bin	0.43333333333333	0
bin	0.46666666666667	0
bin	0.5	0
scalar AODVVANET.vehicle[66].wlan.radio 	bitrate:min 	2000000
attr interpolationmode  sample-hold
attr title  "tx bitrate, min"
attr unit  bps
scalar AODVVANET.vehicle[66].wlan.radio 	bitrate:max 	2000000
attr interpolationmode  sample-hold
attr title  "tx bitrate, max"
attr unit  bps
scalar AODVVANET.vehicle[66].wlan.radio 	bitrate:timeavg 	2000000
attr interpolationmode  sample-hold
attr title  "tx bitrate, timeavg"
attr unit  bps
scalar AODVVANET.vehicle[66].wlan.radio 	radioState:count 	1
attr interpolationmode  sample-hold
attr title  "radio state (enum), count"
scalar AODVVANET.vehicle[66] 	statEndToEndDelay:sum 	0
scalar AODVVANET.vehicle[66] 	statPacketReceived:count 	0
scalar AODVVANET.vehicle[66] 	statPacketSent:count 	0
scalar AODVVANET.vehicle[66] 	statAODVRREPSENT:count 	0
scalar AODVVANET.vehicle[66] 	statAODVRREQSENT:count 	0
