version 2
run AODV-Simple-100-0-20150813-02:04:25-4321
attr configname AODV-Simple-100
attr datetime 20150813-02:04:25
attr experiment AODV-Simple-100
attr inifile omnetpp.ini
attr iterationvars ""
attr iterationvars2 $repetition=0
attr measurement ""
attr network AODVSim
attr processid 4321
attr repetition 0
attr replication #0
attr resultdir results
attr runnumber 0
attr seedset 0

scalar AODVSim.vehicle[6].mobility 	startTime 	19.1
scalar AODVSim.vehicle[6].mobility 	totalTime 	36.2
scalar AODVSim.vehicle[6].mobility 	stopTime 	36.3
scalar AODVSim.vehicle[6].mobility 	minSpeed 	0.25681022623507
scalar AODVSim.vehicle[6].mobility 	maxSpeed 	13.999906795102
scalar AODVSim.vehicle[6].mobility 	totalDistance 	192.34446324475
scalar AODVSim.vehicle[6].mobility 	totalCO2Emission 	58.181852555013
scalar AODVSim.vehicle[6].udp 	droppedPkBadChecksum:count 	0
attr interpolationmode  none
attr title  "packets dropped (checksum error), count"
scalar AODVSim.vehicle[6].udp 	droppedPkWrongPort:count 	0
attr interpolationmode  none
attr title  "packets dropped (wrong port), count"
scalar AODVSim.vehicle[6].udp 	passedUpPk:count 	0
attr interpolationmode  none
attr title  "packets passed up, count"
scalar AODVSim.vehicle[6].udp 	rcvdPk:count 	0
attr interpolationmode  none
attr source  rcvdPk
attr title  "packets received, count"
scalar AODVSim.vehicle[6].udp 	rcvdPk:sum(packetBytes) 	0
attr interpolationmode  none
attr source  rcvdPk
attr title  "packets received, sum(packetBytes)"
scalar AODVSim.vehicle[6].udp 	sentPk:count 	1
attr interpolationmode  none
attr source  sentPk
attr title  "packets sent, count"
scalar AODVSim.vehicle[6].udp 	sentPk:sum(packetBytes) 	8
attr interpolationmode  none
attr source  sentPk
attr title  "packets sent, sum(packetBytes)"
scalar AODVSim.vehicle[6].networkLayer.arp 	failedARPResolution:count 	0
attr title  "ARP failed resolutions, count"
scalar AODVSim.vehicle[6].networkLayer.arp 	completedARPResolution:count 	0
attr title  "ARP completed resolutions, count"
scalar AODVSim.vehicle[6].networkLayer.arp 	initiatedARPResolution:count 	0
attr title  "ARP initiated resolutions, count"
scalar AODVSim.vehicle[6].networkLayer.arp 	sentReply:count 	0
attr title  "ARP replies sent, count"
scalar AODVSim.vehicle[6].networkLayer.arp 	sentReq:count 	0
attr title  "ARP request sent, count"
scalar AODVSim.vehicle[6].wlan.mgmt 	dataQueueLen:max 	0
attr interpolationmode  sample-hold
attr title  "data queue length, max"
scalar AODVSim.vehicle[6].wlan.mgmt 	dataQueueLen:timeavg 	0
attr interpolationmode  sample-hold
attr title  "data queue length, timeavg"
scalar AODVSim.vehicle[6].wlan.mgmt 	dropPkByQueue:count 	0
attr interpolationmode  none
attr source  dropPkByQueue
attr title  "packets dropped by queue, count"
scalar AODVSim.vehicle[6].wlan.mgmt 	dropPkByQueue:sum(packetBytes) 	0
attr interpolationmode  none
attr source  dropPkByQueue
attr title  "packets dropped by queue, sum(packetBytes)"
scalar AODVSim.vehicle[6].wlan.mac 	"number of received packets" 	0
scalar AODVSim.vehicle[6].wlan.mac 	"number of collisions" 	0
scalar AODVSim.vehicle[6].wlan.mac 	"number of internal collisions" 	0
scalar AODVSim.vehicle[6].wlan.mac 	"number of retry for AC 0" 	0
scalar AODVSim.vehicle[6].wlan.mac 	"sent and received bits" 	560
scalar AODVSim.vehicle[6].wlan.mac 	"sent packet within AC 0" 	0
scalar AODVSim.vehicle[6].wlan.mac 	"sent in TXOP " 	0
scalar AODVSim.vehicle[6].wlan.mac 	"sentWithoutRetry AC 0" 	0
scalar AODVSim.vehicle[6].wlan.mac 	"numGivenUp AC 0" 	0
scalar AODVSim.vehicle[6].wlan.mac 	"numDropped AC 0" 	0
scalar AODVSim.vehicle[6].wlan.mac 	rcvdPkFromHL:count 	1
attr interpolationmode  none
attr source  packetReceivedFromUpper
attr title  "packets received from higher layer, count"
scalar AODVSim.vehicle[6].wlan.mac 	rcvdPkFromHL:sum(packetBytes) 	70
attr interpolationmode  none
attr source  packetReceivedFromUpper
attr title  "packets received from higher layer, sum(packetBytes)"
scalar AODVSim.vehicle[6].wlan.mac 	passedUpPk:count 	0
attr interpolationmode  none
attr source  packetSentToUpper
attr title  "packets passed to higher layer, count"
scalar AODVSim.vehicle[6].wlan.mac 	passedUpPk:sum(packetBytes) 	0
attr interpolationmode  none
attr source  packetSentToUpper
attr title  "packets passed to higher layer, sum(packetBytes)"
scalar AODVSim.vehicle[6].wlan.mac 	rcvdPkFromLL:count 	0
attr interpolationmode  none
attr source  packetReceivedFromLower
attr title  "packets received from lower layer, count"
scalar AODVSim.vehicle[6].wlan.mac 	rcvdPkFromLL:sum(packetBytes) 	0
attr interpolationmode  none
attr source  packetReceivedFromLower
attr title  "packets received from lower layer, sum(packetBytes)"
scalar AODVSim.vehicle[6].wlan.mac 	sentDownPk:count 	1
attr interpolationmode  none
attr source  packetSentToLower
attr title  "packets sent to lower layer, count"
scalar AODVSim.vehicle[6].wlan.mac 	sentDownPk:sum(packetBytes) 	70
attr interpolationmode  none
attr source  packetSentToLower
attr title  "packets sent to lower layer, sum(packetBytes)"
scalar AODVSim.vehicle[6].wlan.radio 	lossRate:min 	-nan
attr interpolationmode  backward-sample-hold
attr title  "packet loss rate, min"
scalar AODVSim.vehicle[6].wlan.radio 	lossRate:max 	-nan
attr interpolationmode  backward-sample-hold
attr title  "packet loss rate, max"
scalar AODVSim.vehicle[6].wlan.radio 	lossRate:timeavg 	-nan
attr interpolationmode  backward-sample-hold
attr title  "packet loss rate, timeavg"
statistic AODVSim.vehicle[6].wlan.radio 	channelNo:histogram
field count 1
field mean 0
field stddev -nan
field sum 0
field sqrsum 0
field min 0
field max 0
attr interpolationmode  sample-hold
attr title  "channel no, histogram"
bin	-INF	0
bin	-0.5	0
bin	-0.46666666666667	0
bin	-0.43333333333333	0
bin	-0.4	0
bin	-0.36666666666667	0
bin	-0.33333333333333	0
bin	-0.3	0
bin	-0.26666666666667	0
bin	-0.23333333333333	0
bin	-0.2	0
bin	-0.16666666666667	0
bin	-0.13333333333333	0
bin	-0.1	0
bin	-0.066666666666667	0
bin	-0.033333333333333	0
bin	0	1
bin	0.033333333333333	0
bin	0.066666666666667	0
bin	0.1	0
bin	0.13333333333333	0
bin	0.16666666666667	0
bin	0.2	0
bin	0.23333333333333	0
bin	0.26666666666667	0
bin	0.3	0
bin	0.33333333333333	0
bin	0.36666666666667	0
bin	0.4	0
bin	0.43333333333333	0
bin	0.46666666666667	0
bin	0.5	0
scalar AODVSim.vehicle[6].wlan.radio 	bitrate:min 	2000000
attr interpolationmode  sample-hold
attr title  "tx bitrate, min"
attr unit  bps
scalar AODVSim.vehicle[6].wlan.radio 	bitrate:max 	2000000
attr interpolationmode  sample-hold
attr title  "tx bitrate, max"
attr unit  bps
scalar AODVSim.vehicle[6].wlan.radio 	bitrate:timeavg 	2000000
attr interpolationmode  sample-hold
attr title  "tx bitrate, timeavg"
attr unit  bps
scalar AODVSim.vehicle[6].wlan.radio 	radioState:count 	3
attr interpolationmode  sample-hold
attr title  "radio state (enum), count"
scalar AODVSim.vehicle[6].manetrouting.networkLayer.arp 	failedARPResolution:count 	0
attr title  "ARP failed resolutions, count"
scalar AODVSim.vehicle[6].manetrouting.networkLayer.arp 	completedARPResolution:count 	0
attr title  "ARP completed resolutions, count"
scalar AODVSim.vehicle[6].manetrouting.networkLayer.arp 	initiatedARPResolution:count 	0
attr title  "ARP initiated resolutions, count"
scalar AODVSim.vehicle[6].manetrouting.networkLayer.arp 	sentReply:count 	0
attr title  "ARP replies sent, count"
scalar AODVSim.vehicle[6].manetrouting.networkLayer.arp 	sentReq:count 	0
attr title  "ARP request sent, count"
scalar AODVSim.vehicle[6].manetrouting.lo0.lo 	droppedPkBitError:count 	0
attr interpolationmode  none
attr source  dropPkBitError
attr title  "packets dropped/bit error, count"
scalar AODVSim.vehicle[6].manetrouting.lo0.lo 	droppedPkBitError:sum(packetBytes) 	0
attr interpolationmode  none
attr source  dropPkBitError
attr title  "packets dropped/bit error, sum(packetBytes)"
scalar AODVSim.vehicle[6].manetrouting.lo0.lo 	rcvdPkFromHL:count 	0
attr interpolationmode  none
attr source  packetReceivedFromUpper
attr title  "packets received from higher layer, count"
scalar AODVSim.vehicle[6].manetrouting.lo0.lo 	rcvdPkFromHL:sum(packetBytes) 	0
attr interpolationmode  none
attr source  packetReceivedFromUpper
attr title  "packets received from higher layer, sum(packetBytes)"
scalar AODVSim.vehicle[6].manetrouting.lo0.lo 	passedUpPk:count 	0
attr interpolationmode  none
attr source  packetSentToUpper
attr title  "packets passed to higher layer, count"
scalar AODVSim.vehicle[6].manetrouting.lo0.lo 	passedUpPk:sum(packetBytes) 	0
attr interpolationmode  none
attr source  packetSentToUpper
attr title  "packets passed to higher layer, sum(packetBytes)"
scalar AODVSim.vehicle[6].manetrouting.wlan[0].mgmt 	dataQueueLen:max 	0
attr interpolationmode  sample-hold
attr title  "data queue length, max"
scalar AODVSim.vehicle[6].manetrouting.wlan[0].mgmt 	dataQueueLen:timeavg 	0
attr interpolationmode  sample-hold
attr title  "data queue length, timeavg"
scalar AODVSim.vehicle[6].manetrouting.wlan[0].mgmt 	dropPkByQueue:count 	0
attr interpolationmode  none
attr source  dropPkByQueue
attr title  "packets dropped by queue, count"
scalar AODVSim.vehicle[6].manetrouting.wlan[0].mgmt 	dropPkByQueue:sum(packetBytes) 	0
attr interpolationmode  none
attr source  dropPkByQueue
attr title  "packets dropped by queue, sum(packetBytes)"
scalar AODVSim.vehicle[6].manetrouting.wlan[0].mac 	"number of received packets" 	0
scalar AODVSim.vehicle[6].manetrouting.wlan[0].mac 	"number of collisions" 	0
scalar AODVSim.vehicle[6].manetrouting.wlan[0].mac 	"number of internal collisions" 	0
scalar AODVSim.vehicle[6].manetrouting.wlan[0].mac 	"number of retry for AC 0" 	0
scalar AODVSim.vehicle[6].manetrouting.wlan[0].mac 	"sent and received bits" 	0
scalar AODVSim.vehicle[6].manetrouting.wlan[0].mac 	"sent packet within AC 0" 	0
scalar AODVSim.vehicle[6].manetrouting.wlan[0].mac 	"sent in TXOP " 	0
scalar AODVSim.vehicle[6].manetrouting.wlan[0].mac 	"sentWithoutRetry AC 0" 	0
scalar AODVSim.vehicle[6].manetrouting.wlan[0].mac 	"numGivenUp AC 0" 	0
scalar AODVSim.vehicle[6].manetrouting.wlan[0].mac 	"numDropped AC 0" 	0
scalar AODVSim.vehicle[6].manetrouting.wlan[0].mac 	rcvdPkFromHL:count 	0
attr interpolationmode  none
attr source  packetReceivedFromUpper
attr title  "packets received from higher layer, count"
scalar AODVSim.vehicle[6].manetrouting.wlan[0].mac 	rcvdPkFromHL:sum(packetBytes) 	0
attr interpolationmode  none
attr source  packetReceivedFromUpper
attr title  "packets received from higher layer, sum(packetBytes)"
scalar AODVSim.vehicle[6].manetrouting.wlan[0].mac 	passedUpPk:count 	0
attr interpolationmode  none
attr source  packetSentToUpper
attr title  "packets passed to higher layer, count"
scalar AODVSim.vehicle[6].manetrouting.wlan[0].mac 	passedUpPk:sum(packetBytes) 	0
attr interpolationmode  none
attr source  packetSentToUpper
attr title  "packets passed to higher layer, sum(packetBytes)"
scalar AODVSim.vehicle[6].manetrouting.wlan[0].mac 	rcvdPkFromLL:count 	0
attr interpolationmode  none
attr source  packetReceivedFromLower
attr title  "packets received from lower layer, count"
scalar AODVSim.vehicle[6].manetrouting.wlan[0].mac 	rcvdPkFromLL:sum(packetBytes) 	0
attr interpolationmode  none
attr source  packetReceivedFromLower
attr title  "packets received from lower layer, sum(packetBytes)"
scalar AODVSim.vehicle[6].manetrouting.wlan[0].mac 	sentDownPk:count 	0
attr interpolationmode  none
attr source  packetSentToLower
attr title  "packets sent to lower layer, count"
scalar AODVSim.vehicle[6].manetrouting.wlan[0].mac 	sentDownPk:sum(packetBytes) 	0
attr interpolationmode  none
attr source  packetSentToLower
attr title  "packets sent to lower layer, sum(packetBytes)"
scalar AODVSim.vehicle[6].manetrouting.wlan[0].radio 	lossRate:min 	-nan
attr interpolationmode  backward-sample-hold
attr title  "packet loss rate, min"
scalar AODVSim.vehicle[6].manetrouting.wlan[0].radio 	lossRate:max 	-nan
attr interpolationmode  backward-sample-hold
attr title  "packet loss rate, max"
scalar AODVSim.vehicle[6].manetrouting.wlan[0].radio 	lossRate:timeavg 	-nan
attr interpolationmode  backward-sample-hold
attr title  "packet loss rate, timeavg"
statistic AODVSim.vehicle[6].manetrouting.wlan[0].radio 	channelNo:histogram
field count 1
field mean 0
field stddev -nan
field sum 0
field sqrsum 0
field min 0
field max 0
attr interpolationmode  sample-hold
attr title  "channel no, histogram"
bin	-INF	0
bin	-0.5	0
bin	-0.46666666666667	0
bin	-0.43333333333333	0
bin	-0.4	0
bin	-0.36666666666667	0
bin	-0.33333333333333	0
bin	-0.3	0
bin	-0.26666666666667	0
bin	-0.23333333333333	0
bin	-0.2	0
bin	-0.16666666666667	0
bin	-0.13333333333333	0
bin	-0.1	0
bin	-0.066666666666667	0
bin	-0.033333333333333	0
bin	0	1
bin	0.033333333333333	0
bin	0.066666666666667	0
bin	0.1	0
bin	0.13333333333333	0
bin	0.16666666666667	0
bin	0.2	0
bin	0.23333333333333	0
bin	0.26666666666667	0
bin	0.3	0
bin	0.33333333333333	0
bin	0.36666666666667	0
bin	0.4	0
bin	0.43333333333333	0
bin	0.46666666666667	0
bin	0.5	0
scalar AODVSim.vehicle[6].manetrouting.wlan[0].radio 	bitrate:min 	54000000
attr interpolationmode  sample-hold
attr title  "tx bitrate, min"
attr unit  bps
scalar AODVSim.vehicle[6].manetrouting.wlan[0].radio 	bitrate:max 	54000000
attr interpolationmode  sample-hold
attr title  "tx bitrate, max"
attr unit  bps
scalar AODVSim.vehicle[6].manetrouting.wlan[0].radio 	bitrate:timeavg 	54000000
attr interpolationmode  sample-hold
attr title  "tx bitrate, timeavg"
attr unit  bps
scalar AODVSim.vehicle[6].manetrouting.wlan[0].radio 	radioState:count 	1
attr interpolationmode  sample-hold
attr title  "radio state (enum), count"
scalar AODVSim.vehicle[0].mobility 	startTime 	6.1
scalar AODVSim.vehicle[0].mobility 	totalTime 	54.1
scalar AODVSim.vehicle[0].mobility 	stopTime 	54.1
scalar AODVSim.vehicle[0].mobility 	minSpeed 	0.25286542447004
scalar AODVSim.vehicle[0].mobility 	maxSpeed 	13.999820163865
scalar AODVSim.vehicle[0].mobility 	totalDistance 	620.80745809187
scalar AODVSim.vehicle[0].mobility 	totalCO2Emission 	131.03397399809
scalar AODVSim.vehicle[0].udp 	droppedPkBadChecksum:count 	0
attr interpolationmode  none
attr title  "packets dropped (checksum error), count"
scalar AODVSim.vehicle[0].udp 	droppedPkWrongPort:count 	0
attr interpolationmode  none
attr title  "packets dropped (wrong port), count"
scalar AODVSim.vehicle[0].udp 	passedUpPk:count 	0
attr interpolationmode  none
attr title  "packets passed up, count"
scalar AODVSim.vehicle[0].udp 	rcvdPk:count 	0
attr interpolationmode  none
attr source  rcvdPk
attr title  "packets received, count"
scalar AODVSim.vehicle[0].udp 	rcvdPk:sum(packetBytes) 	0
attr interpolationmode  none
attr source  rcvdPk
attr title  "packets received, sum(packetBytes)"
scalar AODVSim.vehicle[0].udp 	sentPk:count 	1
attr interpolationmode  none
attr source  sentPk
attr title  "packets sent, count"
scalar AODVSim.vehicle[0].udp 	sentPk:sum(packetBytes) 	8
attr interpolationmode  none
attr source  sentPk
attr title  "packets sent, sum(packetBytes)"
scalar AODVSim.vehicle[0].networkLayer.arp 	failedARPResolution:count 	0
attr title  "ARP failed resolutions, count"
scalar AODVSim.vehicle[0].networkLayer.arp 	completedARPResolution:count 	0
attr title  "ARP completed resolutions, count"
scalar AODVSim.vehicle[0].networkLayer.arp 	initiatedARPResolution:count 	0
attr title  "ARP initiated resolutions, count"
scalar AODVSim.vehicle[0].networkLayer.arp 	sentReply:count 	0
attr title  "ARP replies sent, count"
scalar AODVSim.vehicle[0].networkLayer.arp 	sentReq:count 	0
attr title  "ARP request sent, count"
scalar AODVSim.vehicle[0].wlan.mgmt 	dataQueueLen:max 	0
attr interpolationmode  sample-hold
attr title  "data queue length, max"
scalar AODVSim.vehicle[0].wlan.mgmt 	dataQueueLen:timeavg 	0
attr interpolationmode  sample-hold
attr title  "data queue length, timeavg"
scalar AODVSim.vehicle[0].wlan.mgmt 	dropPkByQueue:count 	0
attr interpolationmode  none
attr source  dropPkByQueue
attr title  "packets dropped by queue, count"
scalar AODVSim.vehicle[0].wlan.mgmt 	dropPkByQueue:sum(packetBytes) 	0
attr interpolationmode  none
attr source  dropPkByQueue
attr title  "packets dropped by queue, sum(packetBytes)"
scalar AODVSim.vehicle[0].wlan.mac 	"number of received packets" 	0
scalar AODVSim.vehicle[0].wlan.mac 	"number of collisions" 	0
scalar AODVSim.vehicle[0].wlan.mac 	"number of internal collisions" 	0
scalar AODVSim.vehicle[0].wlan.mac 	"number of retry for AC 0" 	0
scalar AODVSim.vehicle[0].wlan.mac 	"sent and received bits" 	560
scalar AODVSim.vehicle[0].wlan.mac 	"sent packet within AC 0" 	0
scalar AODVSim.vehicle[0].wlan.mac 	"sent in TXOP " 	0
scalar AODVSim.vehicle[0].wlan.mac 	"sentWithoutRetry AC 0" 	0
scalar AODVSim.vehicle[0].wlan.mac 	"numGivenUp AC 0" 	0
scalar AODVSim.vehicle[0].wlan.mac 	"numDropped AC 0" 	0
scalar AODVSim.vehicle[0].wlan.mac 	rcvdPkFromHL:count 	1
attr interpolationmode  none
attr source  packetReceivedFromUpper
attr title  "packets received from higher layer, count"
scalar AODVSim.vehicle[0].wlan.mac 	rcvdPkFromHL:sum(packetBytes) 	70
attr interpolationmode  none
attr source  packetReceivedFromUpper
attr title  "packets received from higher layer, sum(packetBytes)"
scalar AODVSim.vehicle[0].wlan.mac 	passedUpPk:count 	0
attr interpolationmode  none
attr source  packetSentToUpper
attr title  "packets passed to higher layer, count"
scalar AODVSim.vehicle[0].wlan.mac 	passedUpPk:sum(packetBytes) 	0
attr interpolationmode  none
attr source  packetSentToUpper
attr title  "packets passed to higher layer, sum(packetBytes)"
scalar AODVSim.vehicle[0].wlan.mac 	rcvdPkFromLL:count 	0
attr interpolationmode  none
attr source  packetReceivedFromLower
attr title  "packets received from lower layer, count"
scalar AODVSim.vehicle[0].wlan.mac 	rcvdPkFromLL:sum(packetBytes) 	0
attr interpolationmode  none
attr source  packetReceivedFromLower
attr title  "packets received from lower layer, sum(packetBytes)"
scalar AODVSim.vehicle[0].wlan.mac 	sentDownPk:count 	1
attr interpolationmode  none
attr source  packetSentToLower
attr title  "packets sent to lower layer, count"
scalar AODVSim.vehicle[0].wlan.mac 	sentDownPk:sum(packetBytes) 	70
attr interpolationmode  none
attr source  packetSentToLower
attr title  "packets sent to lower layer, sum(packetBytes)"
scalar AODVSim.vehicle[0].wlan.radio 	lossRate:min 	-nan
attr interpolationmode  backward-sample-hold
attr title  "packet loss rate, min"
scalar AODVSim.vehicle[0].wlan.radio 	lossRate:max 	-nan
attr interpolationmode  backward-sample-hold
attr title  "packet loss rate, max"
scalar AODVSim.vehicle[0].wlan.radio 	lossRate:timeavg 	-nan
attr interpolationmode  backward-sample-hold
attr title  "packet loss rate, timeavg"
statistic AODVSim.vehicle[0].wlan.radio 	channelNo:histogram
field count 1
field mean 0
field stddev -nan
field sum 0
field sqrsum 0
field min 0
field max 0
attr interpolationmode  sample-hold
attr title  "channel no, histogram"
bin	-INF	0
bin	-0.5	0
bin	-0.46666666666667	0
bin	-0.43333333333333	0
bin	-0.4	0
bin	-0.36666666666667	0
bin	-0.33333333333333	0
bin	-0.3	0
bin	-0.26666666666667	0
bin	-0.23333333333333	0
bin	-0.2	0
bin	-0.16666666666667	0
bin	-0.13333333333333	0
bin	-0.1	0
bin	-0.066666666666667	0
bin	-0.033333333333333	0
bin	0	1
bin	0.033333333333333	0
bin	0.066666666666667	0
bin	0.1	0
bin	0.13333333333333	0
bin	0.16666666666667	0
bin	0.2	0
bin	0.23333333333333	0
bin	0.26666666666667	0
bin	0.3	0
bin	0.33333333333333	0
bin	0.36666666666667	0
bin	0.4	0
bin	0.43333333333333	0
bin	0.46666666666667	0
bin	0.5	0
scalar AODVSim.vehicle[0].wlan.radio 	bitrate:min 	2000000
attr interpolationmode  sample-hold
attr title  "tx bitrate, min"
attr unit  bps
scalar AODVSim.vehicle[0].wlan.radio 	bitrate:max 	2000000
attr interpolationmode  sample-hold
attr title  "tx bitrate, max"
attr unit  bps
scalar AODVSim.vehicle[0].wlan.radio 	bitrate:timeavg 	2000000
attr interpolationmode  sample-hold
attr title  "tx bitrate, timeavg"
attr unit  bps
scalar AODVSim.vehicle[0].wlan.radio 	radioState:count 	3
attr interpolationmode  sample-hold
attr title  "radio state (enum), count"
scalar AODVSim.vehicle[0].manetrouting.networkLayer.arp 	failedARPResolution:count 	0
attr title  "ARP failed resolutions, count"
scalar AODVSim.vehicle[0].manetrouting.networkLayer.arp 	completedARPResolution:count 	0
attr title  "ARP completed resolutions, count"
scalar AODVSim.vehicle[0].manetrouting.networkLayer.arp 	initiatedARPResolution:count 	0
attr title  "ARP initiated resolutions, count"
scalar AODVSim.vehicle[0].manetrouting.networkLayer.arp 	sentReply:count 	0
attr title  "ARP replies sent, count"
scalar AODVSim.vehicle[0].manetrouting.networkLayer.arp 	sentReq:count 	0
attr title  "ARP request sent, count"
scalar AODVSim.vehicle[0].manetrouting.lo0.lo 	droppedPkBitError:count 	0
attr interpolationmode  none
attr source  dropPkBitError
attr title  "packets dropped/bit error, count"
scalar AODVSim.vehicle[0].manetrouting.lo0.lo 	droppedPkBitError:sum(packetBytes) 	0
attr interpolationmode  none
attr source  dropPkBitError
attr title  "packets dropped/bit error, sum(packetBytes)"
scalar AODVSim.vehicle[0].manetrouting.lo0.lo 	rcvdPkFromHL:count 	0
attr interpolationmode  none
attr source  packetReceivedFromUpper
attr title  "packets received from higher layer, count"
scalar AODVSim.vehicle[0].manetrouting.lo0.lo 	rcvdPkFromHL:sum(packetBytes) 	0
attr interpolationmode  none
attr source  packetReceivedFromUpper
attr title  "packets received from higher layer, sum(packetBytes)"
scalar AODVSim.vehicle[0].manetrouting.lo0.lo 	passedUpPk:count 	0
attr interpolationmode  none
attr source  packetSentToUpper
attr title  "packets passed to higher layer, count"
scalar AODVSim.vehicle[0].manetrouting.lo0.lo 	passedUpPk:sum(packetBytes) 	0
attr interpolationmode  none
attr source  packetSentToUpper
attr title  "packets passed to higher layer, sum(packetBytes)"
scalar AODVSim.vehicle[0].manetrouting.wlan[0].mgmt 	dataQueueLen:max 	0
attr interpolationmode  sample-hold
attr title  "data queue length, max"
scalar AODVSim.vehicle[0].manetrouting.wlan[0].mgmt 	dataQueueLen:timeavg 	0
attr interpolationmode  sample-hold
attr title  "data queue length, timeavg"
scalar AODVSim.vehicle[0].manetrouting.wlan[0].mgmt 	dropPkByQueue:count 	0
attr interpolationmode  none
attr source  dropPkByQueue
attr title  "packets dropped by queue, count"
scalar AODVSim.vehicle[0].manetrouting.wlan[0].mgmt 	dropPkByQueue:sum(packetBytes) 	0
attr interpolationmode  none
attr source  dropPkByQueue
attr title  "packets dropped by queue, sum(packetBytes)"
scalar AODVSim.vehicle[0].manetrouting.wlan[0].mac 	"number of received packets" 	0
scalar AODVSim.vehicle[0].manetrouting.wlan[0].mac 	"number of collisions" 	0
scalar AODVSim.vehicle[0].manetrouting.wlan[0].mac 	"number of internal collisions" 	0
scalar AODVSim.vehicle[0].manetrouting.wlan[0].mac 	"number of retry for AC 0" 	0
scalar AODVSim.vehicle[0].manetrouting.wlan[0].mac 	"sent and received bits" 	0
scalar AODVSim.vehicle[0].manetrouting.wlan[0].mac 	"sent packet within AC 0" 	0
scalar AODVSim.vehicle[0].manetrouting.wlan[0].mac 	"sent in TXOP " 	0
scalar AODVSim.vehicle[0].manetrouting.wlan[0].mac 	"sentWithoutRetry AC 0" 	0
scalar AODVSim.vehicle[0].manetrouting.wlan[0].mac 	"numGivenUp AC 0" 	0
scalar AODVSim.vehicle[0].manetrouting.wlan[0].mac 	"numDropped AC 0" 	0
scalar AODVSim.vehicle[0].manetrouting.wlan[0].mac 	rcvdPkFromHL:count 	0
attr interpolationmode  none
attr source  packetReceivedFromUpper
attr title  "packets received from higher layer, count"
scalar AODVSim.vehicle[0].manetrouting.wlan[0].mac 	rcvdPkFromHL:sum(packetBytes) 	0
attr interpolationmode  none
attr source  packetReceivedFromUpper
attr title  "packets received from higher layer, sum(packetBytes)"
scalar AODVSim.vehicle[0].manetrouting.wlan[0].mac 	passedUpPk:count 	0
attr interpolationmode  none
attr source  packetSentToUpper
attr title  "packets passed to higher layer, count"
scalar AODVSim.vehicle[0].manetrouting.wlan[0].mac 	passedUpPk:sum(packetBytes) 	0
attr interpolationmode  none
attr source  packetSentToUpper
attr title  "packets passed to higher layer, sum(packetBytes)"
scalar AODVSim.vehicle[0].manetrouting.wlan[0].mac 	rcvdPkFromLL:count 	0
attr interpolationmode  none
attr source  packetReceivedFromLower
attr title  "packets received from lower layer, count"
scalar AODVSim.vehicle[0].manetrouting.wlan[0].mac 	rcvdPkFromLL:sum(packetBytes) 	0
attr interpolationmode  none
attr source  packetReceivedFromLower
attr title  "packets received from lower layer, sum(packetBytes)"
scalar AODVSim.vehicle[0].manetrouting.wlan[0].mac 	sentDownPk:count 	0
attr interpolationmode  none
attr source  packetSentToLower
attr title  "packets sent to lower layer, count"
scalar AODVSim.vehicle[0].manetrouting.wlan[0].mac 	sentDownPk:sum(packetBytes) 	0
attr interpolationmode  none
attr source  packetSentToLower
attr title  "packets sent to lower layer, sum(packetBytes)"
scalar AODVSim.vehicle[0].manetrouting.wlan[0].radio 	lossRate:min 	-nan
attr interpolationmode  backward-sample-hold
attr title  "packet loss rate, min"
scalar AODVSim.vehicle[0].manetrouting.wlan[0].radio 	lossRate:max 	-nan
attr interpolationmode  backward-sample-hold
attr title  "packet loss rate, max"
scalar AODVSim.vehicle[0].manetrouting.wlan[0].radio 	lossRate:timeavg 	-nan
attr interpolationmode  backward-sample-hold
attr title  "packet loss rate, timeavg"
statistic AODVSim.vehicle[0].manetrouting.wlan[0].radio 	channelNo:histogram
field count 1
field mean 0
field stddev -nan
field sum 0
field sqrsum 0
field min 0
field max 0
attr interpolationmode  sample-hold
attr title  "channel no, histogram"
bin	-INF	0
bin	-0.5	0
bin	-0.46666666666667	0
bin	-0.43333333333333	0
bin	-0.4	0
bin	-0.36666666666667	0
bin	-0.33333333333333	0
bin	-0.3	0
bin	-0.26666666666667	0
bin	-0.23333333333333	0
bin	-0.2	0
bin	-0.16666666666667	0
bin	-0.13333333333333	0
bin	-0.1	0
bin	-0.066666666666667	0
bin	-0.033333333333333	0
bin	0	1
bin	0.033333333333333	0
bin	0.066666666666667	0
bin	0.1	0
bin	0.13333333333333	0
bin	0.16666666666667	0
bin	0.2	0
bin	0.23333333333333	0
bin	0.26666666666667	0
bin	0.3	0
bin	0.33333333333333	0
bin	0.36666666666667	0
bin	0.4	0
bin	0.43333333333333	0
bin	0.46666666666667	0
bin	0.5	0
scalar AODVSim.vehicle[0].manetrouting.wlan[0].radio 	bitrate:min 	54000000
attr interpolationmode  sample-hold
attr title  "tx bitrate, min"
attr unit  bps
scalar AODVSim.vehicle[0].manetrouting.wlan[0].radio 	bitrate:max 	54000000
attr interpolationmode  sample-hold
attr title  "tx bitrate, max"
attr unit  bps
scalar AODVSim.vehicle[0].manetrouting.wlan[0].radio 	bitrate:timeavg 	54000000
attr interpolationmode  sample-hold
attr title  "tx bitrate, timeavg"
attr unit  bps
scalar AODVSim.vehicle[0].manetrouting.wlan[0].radio 	radioState:count 	1
attr interpolationmode  sample-hold
attr title  "radio state (enum), count"
scalar AODVSim.vehicle[5].mobility 	startTime 	18.1
scalar AODVSim.vehicle[5].mobility 	totalTime 	54.1
scalar AODVSim.vehicle[5].mobility 	stopTime 	54.1
scalar AODVSim.vehicle[5].mobility 	minSpeed 	0.2497930121664
scalar AODVSim.vehicle[5].mobility 	maxSpeed 	13.999929023788
scalar AODVSim.vehicle[5].mobility 	totalDistance 	455.83445136896
scalar AODVSim.vehicle[5].mobility 	totalCO2Emission 	102.49536335483
scalar AODVSim.vehicle[5].udp 	droppedPkBadChecksum:count 	0
attr interpolationmode  none
attr title  "packets dropped (checksum error), count"
scalar AODVSim.vehicle[5].udp 	droppedPkWrongPort:count 	0
attr interpolationmode  none
attr title  "packets dropped (wrong port), count"
scalar AODVSim.vehicle[5].udp 	passedUpPk:count 	0
attr interpolationmode  none
attr title  "packets passed up, count"
scalar AODVSim.vehicle[5].udp 	rcvdPk:count 	0
attr interpolationmode  none
attr source  rcvdPk
attr title  "packets received, count"
scalar AODVSim.vehicle[5].udp 	rcvdPk:sum(packetBytes) 	0
attr interpolationmode  none
attr source  rcvdPk
attr title  "packets received, sum(packetBytes)"
scalar AODVSim.vehicle[5].udp 	sentPk:count 	1
attr interpolationmode  none
attr source  sentPk
attr title  "packets sent, count"
scalar AODVSim.vehicle[5].udp 	sentPk:sum(packetBytes) 	8
attr interpolationmode  none
attr source  sentPk
attr title  "packets sent, sum(packetBytes)"
scalar AODVSim.vehicle[5].networkLayer.arp 	failedARPResolution:count 	0
attr title  "ARP failed resolutions, count"
scalar AODVSim.vehicle[5].networkLayer.arp 	completedARPResolution:count 	0
attr title  "ARP completed resolutions, count"
scalar AODVSim.vehicle[5].networkLayer.arp 	initiatedARPResolution:count 	0
attr title  "ARP initiated resolutions, count"
scalar AODVSim.vehicle[5].networkLayer.arp 	sentReply:count 	0
attr title  "ARP replies sent, count"
scalar AODVSim.vehicle[5].networkLayer.arp 	sentReq:count 	0
attr title  "ARP request sent, count"
scalar AODVSim.vehicle[5].wlan.mgmt 	dataQueueLen:max 	0
attr interpolationmode  sample-hold
attr title  "data queue length, max"
scalar AODVSim.vehicle[5].wlan.mgmt 	dataQueueLen:timeavg 	0
attr interpolationmode  sample-hold
attr title  "data queue length, timeavg"
scalar AODVSim.vehicle[5].wlan.mgmt 	dropPkByQueue:count 	0
attr interpolationmode  none
attr source  dropPkByQueue
attr title  "packets dropped by queue, count"
scalar AODVSim.vehicle[5].wlan.mgmt 	dropPkByQueue:sum(packetBytes) 	0
attr interpolationmode  none
attr source  dropPkByQueue
attr title  "packets dropped by queue, sum(packetBytes)"
scalar AODVSim.vehicle[5].wlan.mac 	"number of received packets" 	0
scalar AODVSim.vehicle[5].wlan.mac 	"number of collisions" 	0
scalar AODVSim.vehicle[5].wlan.mac 	"number of internal collisions" 	0
scalar AODVSim.vehicle[5].wlan.mac 	"number of retry for AC 0" 	0
scalar AODVSim.vehicle[5].wlan.mac 	"sent and received bits" 	560
scalar AODVSim.vehicle[5].wlan.mac 	"sent packet within AC 0" 	0
scalar AODVSim.vehicle[5].wlan.mac 	"sent in TXOP " 	0
scalar AODVSim.vehicle[5].wlan.mac 	"sentWithoutRetry AC 0" 	0
scalar AODVSim.vehicle[5].wlan.mac 	"numGivenUp AC 0" 	0
scalar AODVSim.vehicle[5].wlan.mac 	"numDropped AC 0" 	0
scalar AODVSim.vehicle[5].wlan.mac 	rcvdPkFromHL:count 	1
attr interpolationmode  none
attr source  packetReceivedFromUpper
attr title  "packets received from higher layer, count"
scalar AODVSim.vehicle[5].wlan.mac 	rcvdPkFromHL:sum(packetBytes) 	70
attr interpolationmode  none
attr source  packetReceivedFromUpper
attr title  "packets received from higher layer, sum(packetBytes)"
scalar AODVSim.vehicle[5].wlan.mac 	passedUpPk:count 	0
attr interpolationmode  none
attr source  packetSentToUpper
attr title  "packets passed to higher layer, count"
scalar AODVSim.vehicle[5].wlan.mac 	passedUpPk:sum(packetBytes) 	0
attr interpolationmode  none
attr source  packetSentToUpper
attr title  "packets passed to higher layer, sum(packetBytes)"
scalar AODVSim.vehicle[5].wlan.mac 	rcvdPkFromLL:count 	0
attr interpolationmode  none
attr source  packetReceivedFromLower
attr title  "packets received from lower layer, count"
scalar AODVSim.vehicle[5].wlan.mac 	rcvdPkFromLL:sum(packetBytes) 	0
attr interpolationmode  none
attr source  packetReceivedFromLower
attr title  "packets received from lower layer, sum(packetBytes)"
scalar AODVSim.vehicle[5].wlan.mac 	sentDownPk:count 	1
attr interpolationmode  none
attr source  packetSentToLower
attr title  "packets sent to lower layer, count"
scalar AODVSim.vehicle[5].wlan.mac 	sentDownPk:sum(packetBytes) 	70
attr interpolationmode  none
attr source  packetSentToLower
attr title  "packets sent to lower layer, sum(packetBytes)"
scalar AODVSim.vehicle[5].wlan.radio 	lossRate:min 	-nan
attr interpolationmode  backward-sample-hold
attr title  "packet loss rate, min"
scalar AODVSim.vehicle[5].wlan.radio 	lossRate:max 	-nan
attr interpolationmode  backward-sample-hold
attr title  "packet loss rate, max"
scalar AODVSim.vehicle[5].wlan.radio 	lossRate:timeavg 	-nan
attr interpolationmode  backward-sample-hold
attr title  "packet loss rate, timeavg"
statistic AODVSim.vehicle[5].wlan.radio 	channelNo:histogram
field count 1
field mean 0
field stddev -nan
field sum 0
field sqrsum 0
field min 0
field max 0
attr interpolationmode  sample-hold
attr title  "channel no, histogram"
bin	-INF	0
bin	-0.5	0
bin	-0.46666666666667	0
bin	-0.43333333333333	0
bin	-0.4	0
bin	-0.36666666666667	0
bin	-0.33333333333333	0
bin	-0.3	0
bin	-0.26666666666667	0
bin	-0.23333333333333	0
bin	-0.2	0
bin	-0.16666666666667	0
bin	-0.13333333333333	0
bin	-0.1	0
bin	-0.066666666666667	0
bin	-0.033333333333333	0
bin	0	1
bin	0.033333333333333	0
bin	0.066666666666667	0
bin	0.1	0
bin	0.13333333333333	0
bin	0.16666666666667	0
bin	0.2	0
bin	0.23333333333333	0
bin	0.26666666666667	0
bin	0.3	0
bin	0.33333333333333	0
bin	0.36666666666667	0
bin	0.4	0
bin	0.43333333333333	0
bin	0.46666666666667	0
bin	0.5	0
scalar AODVSim.vehicle[5].wlan.radio 	bitrate:min 	2000000
attr interpolationmode  sample-hold
attr title  "tx bitrate, min"
attr unit  bps
scalar AODVSim.vehicle[5].wlan.radio 	bitrate:max 	2000000
attr interpolationmode  sample-hold
attr title  "tx bitrate, max"
attr unit  bps
scalar AODVSim.vehicle[5].wlan.radio 	bitrate:timeavg 	2000000
attr interpolationmode  sample-hold
attr title  "tx bitrate, timeavg"
attr unit  bps
scalar AODVSim.vehicle[5].wlan.radio 	radioState:count 	3
attr interpolationmode  sample-hold
attr title  "radio state (enum), count"
scalar AODVSim.vehicle[5].manetrouting.networkLayer.arp 	failedARPResolution:count 	0
attr title  "ARP failed resolutions, count"
scalar AODVSim.vehicle[5].manetrouting.networkLayer.arp 	completedARPResolution:count 	0
attr title  "ARP completed resolutions, count"
scalar AODVSim.vehicle[5].manetrouting.networkLayer.arp 	initiatedARPResolution:count 	0
attr title  "ARP initiated resolutions, count"
scalar AODVSim.vehicle[5].manetrouting.networkLayer.arp 	sentReply:count 	0
attr title  "ARP replies sent, count"
scalar AODVSim.vehicle[5].manetrouting.networkLayer.arp 	sentReq:count 	0
attr title  "ARP request sent, count"
scalar AODVSim.vehicle[5].manetrouting.lo0.lo 	droppedPkBitError:count 	0
attr interpolationmode  none
attr source  dropPkBitError
attr title  "packets dropped/bit error, count"
scalar AODVSim.vehicle[5].manetrouting.lo0.lo 	droppedPkBitError:sum(packetBytes) 	0
attr interpolationmode  none
attr source  dropPkBitError
attr title  "packets dropped/bit error, sum(packetBytes)"
scalar AODVSim.vehicle[5].manetrouting.lo0.lo 	rcvdPkFromHL:count 	0
attr interpolationmode  none
attr source  packetReceivedFromUpper
attr title  "packets received from higher layer, count"
scalar AODVSim.vehicle[5].manetrouting.lo0.lo 	rcvdPkFromHL:sum(packetBytes) 	0
attr interpolationmode  none
attr source  packetReceivedFromUpper
attr title  "packets received from higher layer, sum(packetBytes)"
scalar AODVSim.vehicle[5].manetrouting.lo0.lo 	passedUpPk:count 	0
attr interpolationmode  none
attr source  packetSentToUpper
attr title  "packets passed to higher layer, count"
scalar AODVSim.vehicle[5].manetrouting.lo0.lo 	passedUpPk:sum(packetBytes) 	0
attr interpolationmode  none
attr source  packetSentToUpper
attr title  "packets passed to higher layer, sum(packetBytes)"
scalar AODVSim.vehicle[5].manetrouting.wlan[0].mgmt 	dataQueueLen:max 	0
attr interpolationmode  sample-hold
attr title  "data queue length, max"
scalar AODVSim.vehicle[5].manetrouting.wlan[0].mgmt 	dataQueueLen:timeavg 	0
attr interpolationmode  sample-hold
attr title  "data queue length, timeavg"
scalar AODVSim.vehicle[5].manetrouting.wlan[0].mgmt 	dropPkByQueue:count 	0
attr interpolationmode  none
attr source  dropPkByQueue
attr title  "packets dropped by queue, count"
scalar AODVSim.vehicle[5].manetrouting.wlan[0].mgmt 	dropPkByQueue:sum(packetBytes) 	0
attr interpolationmode  none
attr source  dropPkByQueue
attr title  "packets dropped by queue, sum(packetBytes)"
scalar AODVSim.vehicle[5].manetrouting.wlan[0].mac 	"number of received packets" 	0
scalar AODVSim.vehicle[5].manetrouting.wlan[0].mac 	"number of collisions" 	0
scalar AODVSim.vehicle[5].manetrouting.wlan[0].mac 	"number of internal collisions" 	0
scalar AODVSim.vehicle[5].manetrouting.wlan[0].mac 	"number of retry for AC 0" 	0
scalar AODVSim.vehicle[5].manetrouting.wlan[0].mac 	"sent and received bits" 	0
scalar AODVSim.vehicle[5].manetrouting.wlan[0].mac 	"sent packet within AC 0" 	0
scalar AODVSim.vehicle[5].manetrouting.wlan[0].mac 	"sent in TXOP " 	0
scalar AODVSim.vehicle[5].manetrouting.wlan[0].mac 	"sentWithoutRetry AC 0" 	0
scalar AODVSim.vehicle[5].manetrouting.wlan[0].mac 	"numGivenUp AC 0" 	0
scalar AODVSim.vehicle[5].manetrouting.wlan[0].mac 	"numDropped AC 0" 	0
scalar AODVSim.vehicle[5].manetrouting.wlan[0].mac 	rcvdPkFromHL:count 	0
attr interpolationmode  none
attr source  packetReceivedFromUpper
attr title  "packets received from higher layer, count"
scalar AODVSim.vehicle[5].manetrouting.wlan[0].mac 	rcvdPkFromHL:sum(packetBytes) 	0
attr interpolationmode  none
attr source  packetReceivedFromUpper
attr title  "packets received from higher layer, sum(packetBytes)"
scalar AODVSim.vehicle[5].manetrouting.wlan[0].mac 	passedUpPk:count 	0
attr interpolationmode  none
attr source  packetSentToUpper
attr title  "packets passed to higher layer, count"
scalar AODVSim.vehicle[5].manetrouting.wlan[0].mac 	passedUpPk:sum(packetBytes) 	0
attr interpolationmode  none
attr source  packetSentToUpper
attr title  "packets passed to higher layer, sum(packetBytes)"
scalar AODVSim.vehicle[5].manetrouting.wlan[0].mac 	rcvdPkFromLL:count 	0
attr interpolationmode  none
attr source  packetReceivedFromLower
attr title  "packets received from lower layer, count"
scalar AODVSim.vehicle[5].manetrouting.wlan[0].mac 	rcvdPkFromLL:sum(packetBytes) 	0
attr interpolationmode  none
attr source  packetReceivedFromLower
attr title  "packets received from lower layer, sum(packetBytes)"
scalar AODVSim.vehicle[5].manetrouting.wlan[0].mac 	sentDownPk:count 	0
attr interpolationmode  none
attr source  packetSentToLower
attr title  "packets sent to lower layer, count"
scalar AODVSim.vehicle[5].manetrouting.wlan[0].mac 	sentDownPk:sum(packetBytes) 	0
attr interpolationmode  none
attr source  packetSentToLower
attr title  "packets sent to lower layer, sum(packetBytes)"
scalar AODVSim.vehicle[5].manetrouting.wlan[0].radio 	lossRate:min 	-nan
attr interpolationmode  backward-sample-hold
attr title  "packet loss rate, min"
scalar AODVSim.vehicle[5].manetrouting.wlan[0].radio 	lossRate:max 	-nan
attr interpolationmode  backward-sample-hold
attr title  "packet loss rate, max"
scalar AODVSim.vehicle[5].manetrouting.wlan[0].radio 	lossRate:timeavg 	-nan
attr interpolationmode  backward-sample-hold
attr title  "packet loss rate, timeavg"
statistic AODVSim.vehicle[5].manetrouting.wlan[0].radio 	channelNo:histogram
field count 1
field mean 0
field stddev -nan
field sum 0
field sqrsum 0
field min 0
field max 0
attr interpolationmode  sample-hold
attr title  "channel no, histogram"
bin	-INF	0
bin	-0.5	0
bin	-0.46666666666667	0
bin	-0.43333333333333	0
bin	-0.4	0
bin	-0.36666666666667	0
bin	-0.33333333333333	0
bin	-0.3	0
bin	-0.26666666666667	0
bin	-0.23333333333333	0
bin	-0.2	0
bin	-0.16666666666667	0
bin	-0.13333333333333	0
bin	-0.1	0
bin	-0.066666666666667	0
bin	-0.033333333333333	0
bin	0	1
bin	0.033333333333333	0
bin	0.066666666666667	0
bin	0.1	0
bin	0.13333333333333	0
bin	0.16666666666667	0
bin	0.2	0
bin	0.23333333333333	0
bin	0.26666666666667	0
bin	0.3	0
bin	0.33333333333333	0
bin	0.36666666666667	0
bin	0.4	0
bin	0.43333333333333	0
bin	0.46666666666667	0
bin	0.5	0
scalar AODVSim.vehicle[5].manetrouting.wlan[0].radio 	bitrate:min 	54000000
attr interpolationmode  sample-hold
attr title  "tx bitrate, min"
attr unit  bps
scalar AODVSim.vehicle[5].manetrouting.wlan[0].radio 	bitrate:max 	54000000
attr interpolationmode  sample-hold
attr title  "tx bitrate, max"
attr unit  bps
scalar AODVSim.vehicle[5].manetrouting.wlan[0].radio 	bitrate:timeavg 	54000000
attr interpolationmode  sample-hold
attr title  "tx bitrate, timeavg"
attr unit  bps
scalar AODVSim.vehicle[5].manetrouting.wlan[0].radio 	radioState:count 	1
attr interpolationmode  sample-hold
attr title  "radio state (enum), count"
scalar AODVSim.vehicle[7].mobility 	startTime 	21.1
scalar AODVSim.vehicle[7].mobility 	totalTime 	54.1
scalar AODVSim.vehicle[7].mobility 	stopTime 	54.1
scalar AODVSim.vehicle[7].mobility 	minSpeed 	0.25505051981774
scalar AODVSim.vehicle[7].mobility 	maxSpeed 	13.99991365198
scalar AODVSim.vehicle[7].mobility 	totalDistance 	412.78994271045
scalar AODVSim.vehicle[7].mobility 	totalCO2Emission 	95.464204247009
scalar AODVSim.vehicle[7].udp 	droppedPkBadChecksum:count 	0
attr interpolationmode  none
attr title  "packets dropped (checksum error), count"
scalar AODVSim.vehicle[7].udp 	droppedPkWrongPort:count 	0
attr interpolationmode  none
attr title  "packets dropped (wrong port), count"
scalar AODVSim.vehicle[7].udp 	passedUpPk:count 	0
attr interpolationmode  none
attr title  "packets passed up, count"
scalar AODVSim.vehicle[7].udp 	rcvdPk:count 	0
attr interpolationmode  none
attr source  rcvdPk
attr title  "packets received, count"
scalar AODVSim.vehicle[7].udp 	rcvdPk:sum(packetBytes) 	0
attr interpolationmode  none
attr source  rcvdPk
attr title  "packets received, sum(packetBytes)"
scalar AODVSim.vehicle[7].udp 	sentPk:count 	1
attr interpolationmode  none
attr source  sentPk
attr title  "packets sent, count"
scalar AODVSim.vehicle[7].udp 	sentPk:sum(packetBytes) 	8
attr interpolationmode  none
attr source  sentPk
attr title  "packets sent, sum(packetBytes)"
scalar AODVSim.vehicle[7].networkLayer.arp 	failedARPResolution:count 	0
attr title  "ARP failed resolutions, count"
scalar AODVSim.vehicle[7].networkLayer.arp 	completedARPResolution:count 	0
attr title  "ARP completed resolutions, count"
scalar AODVSim.vehicle[7].networkLayer.arp 	initiatedARPResolution:count 	0
attr title  "ARP initiated resolutions, count"
scalar AODVSim.vehicle[7].networkLayer.arp 	sentReply:count 	0
attr title  "ARP replies sent, count"
scalar AODVSim.vehicle[7].networkLayer.arp 	sentReq:count 	0
attr title  "ARP request sent, count"
scalar AODVSim.vehicle[7].wlan.mgmt 	dataQueueLen:max 	0
attr interpolationmode  sample-hold
attr title  "data queue length, max"
scalar AODVSim.vehicle[7].wlan.mgmt 	dataQueueLen:timeavg 	0
attr interpolationmode  sample-hold
attr title  "data queue length, timeavg"
scalar AODVSim.vehicle[7].wlan.mgmt 	dropPkByQueue:count 	0
attr interpolationmode  none
attr source  dropPkByQueue
attr title  "packets dropped by queue, count"
scalar AODVSim.vehicle[7].wlan.mgmt 	dropPkByQueue:sum(packetBytes) 	0
attr interpolationmode  none
attr source  dropPkByQueue
attr title  "packets dropped by queue, sum(packetBytes)"
scalar AODVSim.vehicle[7].wlan.mac 	"number of received packets" 	0
scalar AODVSim.vehicle[7].wlan.mac 	"number of collisions" 	0
scalar AODVSim.vehicle[7].wlan.mac 	"number of internal collisions" 	0
scalar AODVSim.vehicle[7].wlan.mac 	"number of retry for AC 0" 	0
scalar AODVSim.vehicle[7].wlan.mac 	"sent and received bits" 	560
scalar AODVSim.vehicle[7].wlan.mac 	"sent packet within AC 0" 	0
scalar AODVSim.vehicle[7].wlan.mac 	"sent in TXOP " 	0
scalar AODVSim.vehicle[7].wlan.mac 	"sentWithoutRetry AC 0" 	0
scalar AODVSim.vehicle[7].wlan.mac 	"numGivenUp AC 0" 	0
scalar AODVSim.vehicle[7].wlan.mac 	"numDropped AC 0" 	0
scalar AODVSim.vehicle[7].wlan.mac 	rcvdPkFromHL:count 	1
attr interpolationmode  none
attr source  packetReceivedFromUpper
attr title  "packets received from higher layer, count"
scalar AODVSim.vehicle[7].wlan.mac 	rcvdPkFromHL:sum(packetBytes) 	70
attr interpolationmode  none
attr source  packetReceivedFromUpper
attr title  "packets received from higher layer, sum(packetBytes)"
scalar AODVSim.vehicle[7].wlan.mac 	passedUpPk:count 	0
attr interpolationmode  none
attr source  packetSentToUpper
attr title  "packets passed to higher layer, count"
scalar AODVSim.vehicle[7].wlan.mac 	passedUpPk:sum(packetBytes) 	0
attr interpolationmode  none
attr source  packetSentToUpper
attr title  "packets passed to higher layer, sum(packetBytes)"
scalar AODVSim.vehicle[7].wlan.mac 	rcvdPkFromLL:count 	0
attr interpolationmode  none
attr source  packetReceivedFromLower
attr title  "packets received from lower layer, count"
scalar AODVSim.vehicle[7].wlan.mac 	rcvdPkFromLL:sum(packetBytes) 	0
attr interpolationmode  none
attr source  packetReceivedFromLower
attr title  "packets received from lower layer, sum(packetBytes)"
scalar AODVSim.vehicle[7].wlan.mac 	sentDownPk:count 	1
attr interpolationmode  none
attr source  packetSentToLower
attr title  "packets sent to lower layer, count"
scalar AODVSim.vehicle[7].wlan.mac 	sentDownPk:sum(packetBytes) 	70
attr interpolationmode  none
attr source  packetSentToLower
attr title  "packets sent to lower layer, sum(packetBytes)"
scalar AODVSim.vehicle[7].wlan.radio 	lossRate:min 	-nan
attr interpolationmode  backward-sample-hold
attr title  "packet loss rate, min"
scalar AODVSim.vehicle[7].wlan.radio 	lossRate:max 	-nan
attr interpolationmode  backward-sample-hold
attr title  "packet loss rate, max"
scalar AODVSim.vehicle[7].wlan.radio 	lossRate:timeavg 	-nan
attr interpolationmode  backward-sample-hold
attr title  "packet loss rate, timeavg"
statistic AODVSim.vehicle[7].wlan.radio 	channelNo:histogram
field count 1
field mean 0
field stddev -nan
field sum 0
field sqrsum 0
field min 0
field max 0
attr interpolationmode  sample-hold
attr title  "channel no, histogram"
bin	-INF	0
bin	-0.5	0
bin	-0.46666666666667	0
bin	-0.43333333333333	0
bin	-0.4	0
bin	-0.36666666666667	0
bin	-0.33333333333333	0
bin	-0.3	0
bin	-0.26666666666667	0
bin	-0.23333333333333	0
bin	-0.2	0
bin	-0.16666666666667	0
bin	-0.13333333333333	0
bin	-0.1	0
bin	-0.066666666666667	0
bin	-0.033333333333333	0
bin	0	1
bin	0.033333333333333	0
bin	0.066666666666667	0
bin	0.1	0
bin	0.13333333333333	0
bin	0.16666666666667	0
bin	0.2	0
bin	0.23333333333333	0
bin	0.26666666666667	0
bin	0.3	0
bin	0.33333333333333	0
bin	0.36666666666667	0
bin	0.4	0
bin	0.43333333333333	0
bin	0.46666666666667	0
bin	0.5	0
scalar AODVSim.vehicle[7].wlan.radio 	bitrate:min 	2000000
attr interpolationmode  sample-hold
attr title  "tx bitrate, min"
attr unit  bps
scalar AODVSim.vehicle[7].wlan.radio 	bitrate:max 	2000000
attr interpolationmode  sample-hold
attr title  "tx bitrate, max"
attr unit  bps
scalar AODVSim.vehicle[7].wlan.radio 	bitrate:timeavg 	2000000
attr interpolationmode  sample-hold
attr title  "tx bitrate, timeavg"
attr unit  bps
scalar AODVSim.vehicle[7].wlan.radio 	radioState:count 	3
attr interpolationmode  sample-hold
attr title  "radio state (enum), count"
scalar AODVSim.vehicle[7].manetrouting.networkLayer.arp 	failedARPResolution:count 	0
attr title  "ARP failed resolutions, count"
scalar AODVSim.vehicle[7].manetrouting.networkLayer.arp 	completedARPResolution:count 	0
attr title  "ARP completed resolutions, count"
scalar AODVSim.vehicle[7].manetrouting.networkLayer.arp 	initiatedARPResolution:count 	0
attr title  "ARP initiated resolutions, count"
scalar AODVSim.vehicle[7].manetrouting.networkLayer.arp 	sentReply:count 	0
attr title  "ARP replies sent, count"
scalar AODVSim.vehicle[7].manetrouting.networkLayer.arp 	sentReq:count 	0
attr title  "ARP request sent, count"
scalar AODVSim.vehicle[7].manetrouting.lo0.lo 	droppedPkBitError:count 	0
attr interpolationmode  none
attr source  dropPkBitError
attr title  "packets dropped/bit error, count"
scalar AODVSim.vehicle[7].manetrouting.lo0.lo 	droppedPkBitError:sum(packetBytes) 	0
attr interpolationmode  none
attr source  dropPkBitError
attr title  "packets dropped/bit error, sum(packetBytes)"
scalar AODVSim.vehicle[7].manetrouting.lo0.lo 	rcvdPkFromHL:count 	0
attr interpolationmode  none
attr source  packetReceivedFromUpper
attr title  "packets received from higher layer, count"
scalar AODVSim.vehicle[7].manetrouting.lo0.lo 	rcvdPkFromHL:sum(packetBytes) 	0
attr interpolationmode  none
attr source  packetReceivedFromUpper
attr title  "packets received from higher layer, sum(packetBytes)"
scalar AODVSim.vehicle[7].manetrouting.lo0.lo 	passedUpPk:count 	0
attr interpolationmode  none
attr source  packetSentToUpper
attr title  "packets passed to higher layer, count"
scalar AODVSim.vehicle[7].manetrouting.lo0.lo 	passedUpPk:sum(packetBytes) 	0
attr interpolationmode  none
attr source  packetSentToUpper
attr title  "packets passed to higher layer, sum(packetBytes)"
scalar AODVSim.vehicle[7].manetrouting.wlan[0].mgmt 	dataQueueLen:max 	0
attr interpolationmode  sample-hold
attr title  "data queue length, max"
scalar AODVSim.vehicle[7].manetrouting.wlan[0].mgmt 	dataQueueLen:timeavg 	0
attr interpolationmode  sample-hold
attr title  "data queue length, timeavg"
scalar AODVSim.vehicle[7].manetrouting.wlan[0].mgmt 	dropPkByQueue:count 	0
attr interpolationmode  none
attr source  dropPkByQueue
attr title  "packets dropped by queue, count"
scalar AODVSim.vehicle[7].manetrouting.wlan[0].mgmt 	dropPkByQueue:sum(packetBytes) 	0
attr interpolationmode  none
attr source  dropPkByQueue
attr title  "packets dropped by queue, sum(packetBytes)"
scalar AODVSim.vehicle[7].manetrouting.wlan[0].mac 	"number of received packets" 	0
scalar AODVSim.vehicle[7].manetrouting.wlan[0].mac 	"number of collisions" 	0
scalar AODVSim.vehicle[7].manetrouting.wlan[0].mac 	"number of internal collisions" 	0
scalar AODVSim.vehicle[7].manetrouting.wlan[0].mac 	"number of retry for AC 0" 	0
scalar AODVSim.vehicle[7].manetrouting.wlan[0].mac 	"sent and received bits" 	0
scalar AODVSim.vehicle[7].manetrouting.wlan[0].mac 	"sent packet within AC 0" 	0
scalar AODVSim.vehicle[7].manetrouting.wlan[0].mac 	"sent in TXOP " 	0
scalar AODVSim.vehicle[7].manetrouting.wlan[0].mac 	"sentWithoutRetry AC 0" 	0
scalar AODVSim.vehicle[7].manetrouting.wlan[0].mac 	"numGivenUp AC 0" 	0
scalar AODVSim.vehicle[7].manetrouting.wlan[0].mac 	"numDropped AC 0" 	0
scalar AODVSim.vehicle[7].manetrouting.wlan[0].mac 	rcvdPkFromHL:count 	0
attr interpolationmode  none
attr source  packetReceivedFromUpper
attr title  "packets received from higher layer, count"
scalar AODVSim.vehicle[7].manetrouting.wlan[0].mac 	rcvdPkFromHL:sum(packetBytes) 	0
attr interpolationmode  none
attr source  packetReceivedFromUpper
attr title  "packets received from higher layer, sum(packetBytes)"
scalar AODVSim.vehicle[7].manetrouting.wlan[0].mac 	passedUpPk:count 	0
attr interpolationmode  none
attr source  packetSentToUpper
attr title  "packets passed to higher layer, count"
scalar AODVSim.vehicle[7].manetrouting.wlan[0].mac 	passedUpPk:sum(packetBytes) 	0
attr interpolationmode  none
attr source  packetSentToUpper
attr title  "packets passed to higher layer, sum(packetBytes)"
scalar AODVSim.vehicle[7].manetrouting.wlan[0].mac 	rcvdPkFromLL:count 	0
attr interpolationmode  none
attr source  packetReceivedFromLower
attr title  "packets received from lower layer, count"
scalar AODVSim.vehicle[7].manetrouting.wlan[0].mac 	rcvdPkFromLL:sum(packetBytes) 	0
attr interpolationmode  none
attr source  packetReceivedFromLower
attr title  "packets received from lower layer, sum(packetBytes)"
scalar AODVSim.vehicle[7].manetrouting.wlan[0].mac 	sentDownPk:count 	0
attr interpolationmode  none
attr source  packetSentToLower
attr title  "packets sent to lower layer, count"
scalar AODVSim.vehicle[7].manetrouting.wlan[0].mac 	sentDownPk:sum(packetBytes) 	0
attr interpolationmode  none
attr source  packetSentToLower
attr title  "packets sent to lower layer, sum(packetBytes)"
scalar AODVSim.vehicle[7].manetrouting.wlan[0].radio 	lossRate:min 	-nan
attr interpolationmode  backward-sample-hold
attr title  "packet loss rate, min"
scalar AODVSim.vehicle[7].manetrouting.wlan[0].radio 	lossRate:max 	-nan
attr interpolationmode  backward-sample-hold
attr title  "packet loss rate, max"
scalar AODVSim.vehicle[7].manetrouting.wlan[0].radio 	lossRate:timeavg 	-nan
attr interpolationmode  backward-sample-hold
attr title  "packet loss rate, timeavg"
statistic AODVSim.vehicle[7].manetrouting.wlan[0].radio 	channelNo:histogram
field count 1
field mean 0
field stddev -nan
field sum 0
field sqrsum 0
field min 0
field max 0
attr interpolationmode  sample-hold
attr title  "channel no, histogram"
bin	-INF	0
bin	-0.5	0
bin	-0.46666666666667	0
bin	-0.43333333333333	0
bin	-0.4	0
bin	-0.36666666666667	0
bin	-0.33333333333333	0
bin	-0.3	0
bin	-0.26666666666667	0
bin	-0.23333333333333	0
bin	-0.2	0
bin	-0.16666666666667	0
bin	-0.13333333333333	0
bin	-0.1	0
bin	-0.066666666666667	0
bin	-0.033333333333333	0
bin	0	1
bin	0.033333333333333	0
bin	0.066666666666667	0
bin	0.1	0
bin	0.13333333333333	0
bin	0.16666666666667	0
bin	0.2	0
bin	0.23333333333333	0
bin	0.26666666666667	0
bin	0.3	0
bin	0.33333333333333	0
bin	0.36666666666667	0
bin	0.4	0
bin	0.43333333333333	0
bin	0.46666666666667	0
bin	0.5	0
scalar AODVSim.vehicle[7].manetrouting.wlan[0].radio 	bitrate:min 	54000000
attr interpolationmode  sample-hold
attr title  "tx bitrate, min"
attr unit  bps
scalar AODVSim.vehicle[7].manetrouting.wlan[0].radio 	bitrate:max 	54000000
attr interpolationmode  sample-hold
attr title  "tx bitrate, max"
attr unit  bps
scalar AODVSim.vehicle[7].manetrouting.wlan[0].radio 	bitrate:timeavg 	54000000
attr interpolationmode  sample-hold
attr title  "tx bitrate, timeavg"
attr unit  bps
scalar AODVSim.vehicle[7].manetrouting.wlan[0].radio 	radioState:count 	1
attr interpolationmode  sample-hold
attr title  "radio state (enum), count"
scalar AODVSim.vehicle[8].mobility 	startTime 	24.1
scalar AODVSim.vehicle[8].mobility 	totalTime 	54.1
scalar AODVSim.vehicle[8].mobility 	stopTime 	54.1
scalar AODVSim.vehicle[8].mobility 	minSpeed 	0.25438034072146
scalar AODVSim.vehicle[8].mobility 	maxSpeed 	13.999910098459
scalar AODVSim.vehicle[8].mobility 	totalDistance 	371.72336133925
scalar AODVSim.vehicle[8].mobility 	totalCO2Emission 	88.862268550031
scalar AODVSim.vehicle[8].udp 	droppedPkBadChecksum:count 	0
attr interpolationmode  none
attr title  "packets dropped (checksum error), count"
scalar AODVSim.vehicle[8].udp 	droppedPkWrongPort:count 	0
attr interpolationmode  none
attr title  "packets dropped (wrong port), count"
scalar AODVSim.vehicle[8].udp 	passedUpPk:count 	0
attr interpolationmode  none
attr title  "packets passed up, count"
scalar AODVSim.vehicle[8].udp 	rcvdPk:count 	0
attr interpolationmode  none
attr source  rcvdPk
attr title  "packets received, count"
scalar AODVSim.vehicle[8].udp 	rcvdPk:sum(packetBytes) 	0
attr interpolationmode  none
attr source  rcvdPk
attr title  "packets received, sum(packetBytes)"
scalar AODVSim.vehicle[8].udp 	sentPk:count 	1
attr interpolationmode  none
attr source  sentPk
attr title  "packets sent, count"
scalar AODVSim.vehicle[8].udp 	sentPk:sum(packetBytes) 	8
attr interpolationmode  none
attr source  sentPk
attr title  "packets sent, sum(packetBytes)"
scalar AODVSim.vehicle[8].networkLayer.arp 	failedARPResolution:count 	0
attr title  "ARP failed resolutions, count"
scalar AODVSim.vehicle[8].networkLayer.arp 	completedARPResolution:count 	0
attr title  "ARP completed resolutions, count"
scalar AODVSim.vehicle[8].networkLayer.arp 	initiatedARPResolution:count 	0
attr title  "ARP initiated resolutions, count"
scalar AODVSim.vehicle[8].networkLayer.arp 	sentReply:count 	0
attr title  "ARP replies sent, count"
scalar AODVSim.vehicle[8].networkLayer.arp 	sentReq:count 	0
attr title  "ARP request sent, count"
scalar AODVSim.vehicle[8].wlan.mgmt 	dataQueueLen:max 	0
attr interpolationmode  sample-hold
attr title  "data queue length, max"
scalar AODVSim.vehicle[8].wlan.mgmt 	dataQueueLen:timeavg 	0
attr interpolationmode  sample-hold
attr title  "data queue length, timeavg"
scalar AODVSim.vehicle[8].wlan.mgmt 	dropPkByQueue:count 	0
attr interpolationmode  none
attr source  dropPkByQueue
attr title  "packets dropped by queue, count"
scalar AODVSim.vehicle[8].wlan.mgmt 	dropPkByQueue:sum(packetBytes) 	0
attr interpolationmode  none
attr source  dropPkByQueue
attr title  "packets dropped by queue, sum(packetBytes)"
scalar AODVSim.vehicle[8].wlan.mac 	"number of received packets" 	0
scalar AODVSim.vehicle[8].wlan.mac 	"number of collisions" 	0
scalar AODVSim.vehicle[8].wlan.mac 	"number of internal collisions" 	0
scalar AODVSim.vehicle[8].wlan.mac 	"number of retry for AC 0" 	0
scalar AODVSim.vehicle[8].wlan.mac 	"sent and received bits" 	560
scalar AODVSim.vehicle[8].wlan.mac 	"sent packet within AC 0" 	0
scalar AODVSim.vehicle[8].wlan.mac 	"sent in TXOP " 	0
scalar AODVSim.vehicle[8].wlan.mac 	"sentWithoutRetry AC 0" 	0
scalar AODVSim.vehicle[8].wlan.mac 	"numGivenUp AC 0" 	0
scalar AODVSim.vehicle[8].wlan.mac 	"numDropped AC 0" 	0
scalar AODVSim.vehicle[8].wlan.mac 	rcvdPkFromHL:count 	1
attr interpolationmode  none
attr source  packetReceivedFromUpper
attr title  "packets received from higher layer, count"
scalar AODVSim.vehicle[8].wlan.mac 	rcvdPkFromHL:sum(packetBytes) 	70
attr interpolationmode  none
attr source  packetReceivedFromUpper
attr title  "packets received from higher layer, sum(packetBytes)"
scalar AODVSim.vehicle[8].wlan.mac 	passedUpPk:count 	0
attr interpolationmode  none
attr source  packetSentToUpper
attr title  "packets passed to higher layer, count"
scalar AODVSim.vehicle[8].wlan.mac 	passedUpPk:sum(packetBytes) 	0
attr interpolationmode  none
attr source  packetSentToUpper
attr title  "packets passed to higher layer, sum(packetBytes)"
scalar AODVSim.vehicle[8].wlan.mac 	rcvdPkFromLL:count 	0
attr interpolationmode  none
attr source  packetReceivedFromLower
attr title  "packets received from lower layer, count"
scalar AODVSim.vehicle[8].wlan.mac 	rcvdPkFromLL:sum(packetBytes) 	0
attr interpolationmode  none
attr source  packetReceivedFromLower
attr title  "packets received from lower layer, sum(packetBytes)"
scalar AODVSim.vehicle[8].wlan.mac 	sentDownPk:count 	1
attr interpolationmode  none
attr source  packetSentToLower
attr title  "packets sent to lower layer, count"
scalar AODVSim.vehicle[8].wlan.mac 	sentDownPk:sum(packetBytes) 	70
attr interpolationmode  none
attr source  packetSentToLower
attr title  "packets sent to lower layer, sum(packetBytes)"
scalar AODVSim.vehicle[8].wlan.radio 	lossRate:min 	-nan
attr interpolationmode  backward-sample-hold
attr title  "packet loss rate, min"
scalar AODVSim.vehicle[8].wlan.radio 	lossRate:max 	-nan
attr interpolationmode  backward-sample-hold
attr title  "packet loss rate, max"
scalar AODVSim.vehicle[8].wlan.radio 	lossRate:timeavg 	-nan
attr interpolationmode  backward-sample-hold
attr title  "packet loss rate, timeavg"
statistic AODVSim.vehicle[8].wlan.radio 	channelNo:histogram
field count 1
field mean 0
field stddev -nan
field sum 0
field sqrsum 0
field min 0
field max 0
attr interpolationmode  sample-hold
attr title  "channel no, histogram"
bin	-INF	0
bin	-0.5	0
bin	-0.46666666666667	0
bin	-0.43333333333333	0
bin	-0.4	0
bin	-0.36666666666667	0
bin	-0.33333333333333	0
bin	-0.3	0
bin	-0.26666666666667	0
bin	-0.23333333333333	0
bin	-0.2	0
bin	-0.16666666666667	0
bin	-0.13333333333333	0
bin	-0.1	0
bin	-0.066666666666667	0
bin	-0.033333333333333	0
bin	0	1
bin	0.033333333333333	0
bin	0.066666666666667	0
bin	0.1	0
bin	0.13333333333333	0
bin	0.16666666666667	0
bin	0.2	0
bin	0.23333333333333	0
bin	0.26666666666667	0
bin	0.3	0
bin	0.33333333333333	0
bin	0.36666666666667	0
bin	0.4	0
bin	0.43333333333333	0
bin	0.46666666666667	0
bin	0.5	0
scalar AODVSim.vehicle[8].wlan.radio 	bitrate:min 	2000000
attr interpolationmode  sample-hold
attr title  "tx bitrate, min"
attr unit  bps
scalar AODVSim.vehicle[8].wlan.radio 	bitrate:max 	2000000
attr interpolationmode  sample-hold
attr title  "tx bitrate, max"
attr unit  bps
scalar AODVSim.vehicle[8].wlan.radio 	bitrate:timeavg 	2000000
attr interpolationmode  sample-hold
attr title  "tx bitrate, timeavg"
attr unit  bps
scalar AODVSim.vehicle[8].wlan.radio 	radioState:count 	3
attr interpolationmode  sample-hold
attr title  "radio state (enum), count"
scalar AODVSim.vehicle[8].manetrouting.networkLayer.arp 	failedARPResolution:count 	0
attr title  "ARP failed resolutions, count"
scalar AODVSim.vehicle[8].manetrouting.networkLayer.arp 	completedARPResolution:count 	0
attr title  "ARP completed resolutions, count"
scalar AODVSim.vehicle[8].manetrouting.networkLayer.arp 	initiatedARPResolution:count 	0
attr title  "ARP initiated resolutions, count"
scalar AODVSim.vehicle[8].manetrouting.networkLayer.arp 	sentReply:count 	0
attr title  "ARP replies sent, count"
scalar AODVSim.vehicle[8].manetrouting.networkLayer.arp 	sentReq:count 	0
attr title  "ARP request sent, count"
scalar AODVSim.vehicle[8].manetrouting.lo0.lo 	droppedPkBitError:count 	0
attr interpolationmode  none
attr source  dropPkBitError
attr title  "packets dropped/bit error, count"
scalar AODVSim.vehicle[8].manetrouting.lo0.lo 	droppedPkBitError:sum(packetBytes) 	0
attr interpolationmode  none
attr source  dropPkBitError
attr title  "packets dropped/bit error, sum(packetBytes)"
scalar AODVSim.vehicle[8].manetrouting.lo0.lo 	rcvdPkFromHL:count 	0
attr interpolationmode  none
attr source  packetReceivedFromUpper
attr title  "packets received from higher layer, count"
scalar AODVSim.vehicle[8].manetrouting.lo0.lo 	rcvdPkFromHL:sum(packetBytes) 	0
attr interpolationmode  none
attr source  packetReceivedFromUpper
attr title  "packets received from higher layer, sum(packetBytes)"
scalar AODVSim.vehicle[8].manetrouting.lo0.lo 	passedUpPk:count 	0
attr interpolationmode  none
attr source  packetSentToUpper
attr title  "packets passed to higher layer, count"
scalar AODVSim.vehicle[8].manetrouting.lo0.lo 	passedUpPk:sum(packetBytes) 	0
attr interpolationmode  none
attr source  packetSentToUpper
attr title  "packets passed to higher layer, sum(packetBytes)"
scalar AODVSim.vehicle[8].manetrouting.wlan[0].mgmt 	dataQueueLen:max 	0
attr interpolationmode  sample-hold
attr title  "data queue length, max"
scalar AODVSim.vehicle[8].manetrouting.wlan[0].mgmt 	dataQueueLen:timeavg 	0
attr interpolationmode  sample-hold
attr title  "data queue length, timeavg"
scalar AODVSim.vehicle[8].manetrouting.wlan[0].mgmt 	dropPkByQueue:count 	0
attr interpolationmode  none
attr source  dropPkByQueue
attr title  "packets dropped by queue, count"
scalar AODVSim.vehicle[8].manetrouting.wlan[0].mgmt 	dropPkByQueue:sum(packetBytes) 	0
attr interpolationmode  none
attr source  dropPkByQueue
attr title  "packets dropped by queue, sum(packetBytes)"
scalar AODVSim.vehicle[8].manetrouting.wlan[0].mac 	"number of received packets" 	0
scalar AODVSim.vehicle[8].manetrouting.wlan[0].mac 	"number of collisions" 	0
scalar AODVSim.vehicle[8].manetrouting.wlan[0].mac 	"number of internal collisions" 	0
scalar AODVSim.vehicle[8].manetrouting.wlan[0].mac 	"number of retry for AC 0" 	0
scalar AODVSim.vehicle[8].manetrouting.wlan[0].mac 	"sent and received bits" 	0
scalar AODVSim.vehicle[8].manetrouting.wlan[0].mac 	"sent packet within AC 0" 	0
scalar AODVSim.vehicle[8].manetrouting.wlan[0].mac 	"sent in TXOP " 	0
scalar AODVSim.vehicle[8].manetrouting.wlan[0].mac 	"sentWithoutRetry AC 0" 	0
scalar AODVSim.vehicle[8].manetrouting.wlan[0].mac 	"numGivenUp AC 0" 	0
scalar AODVSim.vehicle[8].manetrouting.wlan[0].mac 	"numDropped AC 0" 	0
scalar AODVSim.vehicle[8].manetrouting.wlan[0].mac 	rcvdPkFromHL:count 	0
attr interpolationmode  none
attr source  packetReceivedFromUpper
attr title  "packets received from higher layer, count"
scalar AODVSim.vehicle[8].manetrouting.wlan[0].mac 	rcvdPkFromHL:sum(packetBytes) 	0
attr interpolationmode  none
attr source  packetReceivedFromUpper
attr title  "packets received from higher layer, sum(packetBytes)"
scalar AODVSim.vehicle[8].manetrouting.wlan[0].mac 	passedUpPk:count 	0
attr interpolationmode  none
attr source  packetSentToUpper
attr title  "packets passed to higher layer, count"
scalar AODVSim.vehicle[8].manetrouting.wlan[0].mac 	passedUpPk:sum(packetBytes) 	0
attr interpolationmode  none
attr source  packetSentToUpper
attr title  "packets passed to higher layer, sum(packetBytes)"
scalar AODVSim.vehicle[8].manetrouting.wlan[0].mac 	rcvdPkFromLL:count 	0
attr interpolationmode  none
attr source  packetReceivedFromLower
attr title  "packets received from lower layer, count"
scalar AODVSim.vehicle[8].manetrouting.wlan[0].mac 	rcvdPkFromLL:sum(packetBytes) 	0
attr interpolationmode  none
attr source  packetReceivedFromLower
attr title  "packets received from lower layer, sum(packetBytes)"
scalar AODVSim.vehicle[8].manetrouting.wlan[0].mac 	sentDownPk:count 	0
attr interpolationmode  none
attr source  packetSentToLower
attr title  "packets sent to lower layer, count"
scalar AODVSim.vehicle[8].manetrouting.wlan[0].mac 	sentDownPk:sum(packetBytes) 	0
attr interpolationmode  none
attr source  packetSentToLower
attr title  "packets sent to lower layer, sum(packetBytes)"
scalar AODVSim.vehicle[8].manetrouting.wlan[0].radio 	lossRate:min 	-nan
attr interpolationmode  backward-sample-hold
attr title  "packet loss rate, min"
scalar AODVSim.vehicle[8].manetrouting.wlan[0].radio 	lossRate:max 	-nan
attr interpolationmode  backward-sample-hold
attr title  "packet loss rate, max"
scalar AODVSim.vehicle[8].manetrouting.wlan[0].radio 	lossRate:timeavg 	-nan
attr interpolationmode  backward-sample-hold
attr title  "packet loss rate, timeavg"
statistic AODVSim.vehicle[8].manetrouting.wlan[0].radio 	channelNo:histogram
field count 1
field mean 0
field stddev -nan
field sum 0
field sqrsum 0
field min 0
field max 0
attr interpolationmode  sample-hold
attr title  "channel no, histogram"
bin	-INF	0
bin	-0.5	0
bin	-0.46666666666667	0
bin	-0.43333333333333	0
bin	-0.4	0
bin	-0.36666666666667	0
bin	-0.33333333333333	0
bin	-0.3	0
bin	-0.26666666666667	0
bin	-0.23333333333333	0
bin	-0.2	0
bin	-0.16666666666667	0
bin	-0.13333333333333	0
bin	-0.1	0
bin	-0.066666666666667	0
bin	-0.033333333333333	0
bin	0	1
bin	0.033333333333333	0
bin	0.066666666666667	0
bin	0.1	0
bin	0.13333333333333	0
bin	0.16666666666667	0
bin	0.2	0
bin	0.23333333333333	0
bin	0.26666666666667	0
bin	0.3	0
bin	0.33333333333333	0
bin	0.36666666666667	0
bin	0.4	0
bin	0.43333333333333	0
bin	0.46666666666667	0
bin	0.5	0
scalar AODVSim.vehicle[8].manetrouting.wlan[0].radio 	bitrate:min 	54000000
attr interpolationmode  sample-hold
attr title  "tx bitrate, min"
attr unit  bps
scalar AODVSim.vehicle[8].manetrouting.wlan[0].radio 	bitrate:max 	54000000
attr interpolationmode  sample-hold
attr title  "tx bitrate, max"
attr unit  bps
scalar AODVSim.vehicle[8].manetrouting.wlan[0].radio 	bitrate:timeavg 	54000000
attr interpolationmode  sample-hold
attr title  "tx bitrate, timeavg"
attr unit  bps
scalar AODVSim.vehicle[8].manetrouting.wlan[0].radio 	radioState:count 	1
attr interpolationmode  sample-hold
attr title  "radio state (enum), count"
scalar AODVSim.vehicle[9].mobility 	startTime 	26.1
scalar AODVSim.vehicle[9].mobility 	totalTime 	54.1
scalar AODVSim.vehicle[9].mobility 	stopTime 	54.1
scalar AODVSim.vehicle[9].mobility 	minSpeed 	0.25819205497345
scalar AODVSim.vehicle[9].mobility 	maxSpeed 	13.998657371055
scalar AODVSim.vehicle[9].mobility 	totalDistance 	342.63512022022
scalar AODVSim.vehicle[9].mobility 	totalCO2Emission 	84.60839298827
scalar AODVSim.vehicle[9].udp 	droppedPkBadChecksum:count 	0
attr interpolationmode  none
attr title  "packets dropped (checksum error), count"
scalar AODVSim.vehicle[9].udp 	droppedPkWrongPort:count 	0
attr interpolationmode  none
attr title  "packets dropped (wrong port), count"
scalar AODVSim.vehicle[9].udp 	passedUpPk:count 	0
attr interpolationmode  none
attr title  "packets passed up, count"
scalar AODVSim.vehicle[9].udp 	rcvdPk:count 	0
attr interpolationmode  none
attr source  rcvdPk
attr title  "packets received, count"
scalar AODVSim.vehicle[9].udp 	rcvdPk:sum(packetBytes) 	0
attr interpolationmode  none
attr source  rcvdPk
attr title  "packets received, sum(packetBytes)"
scalar AODVSim.vehicle[9].udp 	sentPk:count 	1
attr interpolationmode  none
attr source  sentPk
attr title  "packets sent, count"
scalar AODVSim.vehicle[9].udp 	sentPk:sum(packetBytes) 	8
attr interpolationmode  none
attr source  sentPk
attr title  "packets sent, sum(packetBytes)"
scalar AODVSim.vehicle[9].networkLayer.arp 	failedARPResolution:count 	0
attr title  "ARP failed resolutions, count"
scalar AODVSim.vehicle[9].networkLayer.arp 	completedARPResolution:count 	0
attr title  "ARP completed resolutions, count"
scalar AODVSim.vehicle[9].networkLayer.arp 	initiatedARPResolution:count 	0
attr title  "ARP initiated resolutions, count"
scalar AODVSim.vehicle[9].networkLayer.arp 	sentReply:count 	0
attr title  "ARP replies sent, count"
scalar AODVSim.vehicle[9].networkLayer.arp 	sentReq:count 	0
attr title  "ARP request sent, count"
scalar AODVSim.vehicle[9].wlan.mgmt 	dataQueueLen:max 	0
attr interpolationmode  sample-hold
attr title  "data queue length, max"
scalar AODVSim.vehicle[9].wlan.mgmt 	dataQueueLen:timeavg 	0
attr interpolationmode  sample-hold
attr title  "data queue length, timeavg"
scalar AODVSim.vehicle[9].wlan.mgmt 	dropPkByQueue:count 	0
attr interpolationmode  none
attr source  dropPkByQueue
attr title  "packets dropped by queue, count"
scalar AODVSim.vehicle[9].wlan.mgmt 	dropPkByQueue:sum(packetBytes) 	0
attr interpolationmode  none
attr source  dropPkByQueue
attr title  "packets dropped by queue, sum(packetBytes)"
scalar AODVSim.vehicle[9].wlan.mac 	"number of received packets" 	0
scalar AODVSim.vehicle[9].wlan.mac 	"number of collisions" 	0
scalar AODVSim.vehicle[9].wlan.mac 	"number of internal collisions" 	0
scalar AODVSim.vehicle[9].wlan.mac 	"number of retry for AC 0" 	0
scalar AODVSim.vehicle[9].wlan.mac 	"sent and received bits" 	560
scalar AODVSim.vehicle[9].wlan.mac 	"sent packet within AC 0" 	0
scalar AODVSim.vehicle[9].wlan.mac 	"sent in TXOP " 	0
scalar AODVSim.vehicle[9].wlan.mac 	"sentWithoutRetry AC 0" 	0
scalar AODVSim.vehicle[9].wlan.mac 	"numGivenUp AC 0" 	0
scalar AODVSim.vehicle[9].wlan.mac 	"numDropped AC 0" 	0
scalar AODVSim.vehicle[9].wlan.mac 	rcvdPkFromHL:count 	1
attr interpolationmode  none
attr source  packetReceivedFromUpper
attr title  "packets received from higher layer, count"
scalar AODVSim.vehicle[9].wlan.mac 	rcvdPkFromHL:sum(packetBytes) 	70
attr interpolationmode  none
attr source  packetReceivedFromUpper
attr title  "packets received from higher layer, sum(packetBytes)"
scalar AODVSim.vehicle[9].wlan.mac 	passedUpPk:count 	0
attr interpolationmode  none
attr source  packetSentToUpper
attr title  "packets passed to higher layer, count"
scalar AODVSim.vehicle[9].wlan.mac 	passedUpPk:sum(packetBytes) 	0
attr interpolationmode  none
attr source  packetSentToUpper
attr title  "packets passed to higher layer, sum(packetBytes)"
scalar AODVSim.vehicle[9].wlan.mac 	rcvdPkFromLL:count 	0
attr interpolationmode  none
attr source  packetReceivedFromLower
attr title  "packets received from lower layer, count"
scalar AODVSim.vehicle[9].wlan.mac 	rcvdPkFromLL:sum(packetBytes) 	0
attr interpolationmode  none
attr source  packetReceivedFromLower
attr title  "packets received from lower layer, sum(packetBytes)"
scalar AODVSim.vehicle[9].wlan.mac 	sentDownPk:count 	1
attr interpolationmode  none
attr source  packetSentToLower
attr title  "packets sent to lower layer, count"
scalar AODVSim.vehicle[9].wlan.mac 	sentDownPk:sum(packetBytes) 	70
attr interpolationmode  none
attr source  packetSentToLower
attr title  "packets sent to lower layer, sum(packetBytes)"
scalar AODVSim.vehicle[9].wlan.radio 	lossRate:min 	-nan
attr interpolationmode  backward-sample-hold
attr title  "packet loss rate, min"
scalar AODVSim.vehicle[9].wlan.radio 	lossRate:max 	-nan
attr interpolationmode  backward-sample-hold
attr title  "packet loss rate, max"
scalar AODVSim.vehicle[9].wlan.radio 	lossRate:timeavg 	-nan
attr interpolationmode  backward-sample-hold
attr title  "packet loss rate, timeavg"
statistic AODVSim.vehicle[9].wlan.radio 	channelNo:histogram
field count 1
field mean 0
field stddev -nan
field sum 0
field sqrsum 0
field min 0
field max 0
attr interpolationmode  sample-hold
attr title  "channel no, histogram"
bin	-INF	0
bin	-0.5	0
bin	-0.46666666666667	0
bin	-0.43333333333333	0
bin	-0.4	0
bin	-0.36666666666667	0
bin	-0.33333333333333	0
bin	-0.3	0
bin	-0.26666666666667	0
bin	-0.23333333333333	0
bin	-0.2	0
bin	-0.16666666666667	0
bin	-0.13333333333333	0
bin	-0.1	0
bin	-0.066666666666667	0
bin	-0.033333333333333	0
bin	0	1
bin	0.033333333333333	0
bin	0.066666666666667	0
bin	0.1	0
bin	0.13333333333333	0
bin	0.16666666666667	0
bin	0.2	0
bin	0.23333333333333	0
bin	0.26666666666667	0
bin	0.3	0
bin	0.33333333333333	0
bin	0.36666666666667	0
bin	0.4	0
bin	0.43333333333333	0
bin	0.46666666666667	0
bin	0.5	0
scalar AODVSim.vehicle[9].wlan.radio 	bitrate:min 	2000000
attr interpolationmode  sample-hold
attr title  "tx bitrate, min"
attr unit  bps
scalar AODVSim.vehicle[9].wlan.radio 	bitrate:max 	2000000
attr interpolationmode  sample-hold
attr title  "tx bitrate, max"
attr unit  bps
scalar AODVSim.vehicle[9].wlan.radio 	bitrate:timeavg 	2000000
attr interpolationmode  sample-hold
attr title  "tx bitrate, timeavg"
attr unit  bps
scalar AODVSim.vehicle[9].wlan.radio 	radioState:count 	3
attr interpolationmode  sample-hold
attr title  "radio state (enum), count"
scalar AODVSim.vehicle[9].manetrouting.networkLayer.arp 	failedARPResolution:count 	0
attr title  "ARP failed resolutions, count"
scalar AODVSim.vehicle[9].manetrouting.networkLayer.arp 	completedARPResolution:count 	0
attr title  "ARP completed resolutions, count"
scalar AODVSim.vehicle[9].manetrouting.networkLayer.arp 	initiatedARPResolution:count 	0
attr title  "ARP initiated resolutions, count"
scalar AODVSim.vehicle[9].manetrouting.networkLayer.arp 	sentReply:count 	0
attr title  "ARP replies sent, count"
scalar AODVSim.vehicle[9].manetrouting.networkLayer.arp 	sentReq:count 	0
attr title  "ARP request sent, count"
scalar AODVSim.vehicle[9].manetrouting.lo0.lo 	droppedPkBitError:count 	0
attr interpolationmode  none
attr source  dropPkBitError
attr title  "packets dropped/bit error, count"
scalar AODVSim.vehicle[9].manetrouting.lo0.lo 	droppedPkBitError:sum(packetBytes) 	0
attr interpolationmode  none
attr source  dropPkBitError
attr title  "packets dropped/bit error, sum(packetBytes)"
scalar AODVSim.vehicle[9].manetrouting.lo0.lo 	rcvdPkFromHL:count 	0
attr interpolationmode  none
attr source  packetReceivedFromUpper
attr title  "packets received from higher layer, count"
scalar AODVSim.vehicle[9].manetrouting.lo0.lo 	rcvdPkFromHL:sum(packetBytes) 	0
attr interpolationmode  none
attr source  packetReceivedFromUpper
attr title  "packets received from higher layer, sum(packetBytes)"
scalar AODVSim.vehicle[9].manetrouting.lo0.lo 	passedUpPk:count 	0
attr interpolationmode  none
attr source  packetSentToUpper
attr title  "packets passed to higher layer, count"
scalar AODVSim.vehicle[9].manetrouting.lo0.lo 	passedUpPk:sum(packetBytes) 	0
attr interpolationmode  none
attr source  packetSentToUpper
attr title  "packets passed to higher layer, sum(packetBytes)"
scalar AODVSim.vehicle[9].manetrouting.wlan[0].mgmt 	dataQueueLen:max 	0
attr interpolationmode  sample-hold
attr title  "data queue length, max"
scalar AODVSim.vehicle[9].manetrouting.wlan[0].mgmt 	dataQueueLen:timeavg 	0
attr interpolationmode  sample-hold
attr title  "data queue length, timeavg"
scalar AODVSim.vehicle[9].manetrouting.wlan[0].mgmt 	dropPkByQueue:count 	0
attr interpolationmode  none
attr source  dropPkByQueue
attr title  "packets dropped by queue, count"
scalar AODVSim.vehicle[9].manetrouting.wlan[0].mgmt 	dropPkByQueue:sum(packetBytes) 	0
attr interpolationmode  none
attr source  dropPkByQueue
attr title  "packets dropped by queue, sum(packetBytes)"
scalar AODVSim.vehicle[9].manetrouting.wlan[0].mac 	"number of received packets" 	0
scalar AODVSim.vehicle[9].manetrouting.wlan[0].mac 	"number of collisions" 	0
scalar AODVSim.vehicle[9].manetrouting.wlan[0].mac 	"number of internal collisions" 	0
scalar AODVSim.vehicle[9].manetrouting.wlan[0].mac 	"number of retry for AC 0" 	0
scalar AODVSim.vehicle[9].manetrouting.wlan[0].mac 	"sent and received bits" 	0
scalar AODVSim.vehicle[9].manetrouting.wlan[0].mac 	"sent packet within AC 0" 	0
scalar AODVSim.vehicle[9].manetrouting.wlan[0].mac 	"sent in TXOP " 	0
scalar AODVSim.vehicle[9].manetrouting.wlan[0].mac 	"sentWithoutRetry AC 0" 	0
scalar AODVSim.vehicle[9].manetrouting.wlan[0].mac 	"numGivenUp AC 0" 	0
scalar AODVSim.vehicle[9].manetrouting.wlan[0].mac 	"numDropped AC 0" 	0
scalar AODVSim.vehicle[9].manetrouting.wlan[0].mac 	rcvdPkFromHL:count 	0
attr interpolationmode  none
attr source  packetReceivedFromUpper
attr title  "packets received from higher layer, count"
scalar AODVSim.vehicle[9].manetrouting.wlan[0].mac 	rcvdPkFromHL:sum(packetBytes) 	0
attr interpolationmode  none
attr source  packetReceivedFromUpper
attr title  "packets received from higher layer, sum(packetBytes)"
scalar AODVSim.vehicle[9].manetrouting.wlan[0].mac 	passedUpPk:count 	0
attr interpolationmode  none
attr source  packetSentToUpper
attr title  "packets passed to higher layer, count"
scalar AODVSim.vehicle[9].manetrouting.wlan[0].mac 	passedUpPk:sum(packetBytes) 	0
attr interpolationmode  none
attr source  packetSentToUpper
attr title  "packets passed to higher layer, sum(packetBytes)"
scalar AODVSim.vehicle[9].manetrouting.wlan[0].mac 	rcvdPkFromLL:count 	0
attr interpolationmode  none
attr source  packetReceivedFromLower
attr title  "packets received from lower layer, count"
scalar AODVSim.vehicle[9].manetrouting.wlan[0].mac 	rcvdPkFromLL:sum(packetBytes) 	0
attr interpolationmode  none
attr source  packetReceivedFromLower
attr title  "packets received from lower layer, sum(packetBytes)"
scalar AODVSim.vehicle[9].manetrouting.wlan[0].mac 	sentDownPk:count 	0
attr interpolationmode  none
attr source  packetSentToLower
attr title  "packets sent to lower layer, count"
scalar AODVSim.vehicle[9].manetrouting.wlan[0].mac 	sentDownPk:sum(packetBytes) 	0
attr interpolationmode  none
attr source  packetSentToLower
attr title  "packets sent to lower layer, sum(packetBytes)"
scalar AODVSim.vehicle[9].manetrouting.wlan[0].radio 	lossRate:min 	-nan
attr interpolationmode  backward-sample-hold
attr title  "packet loss rate, min"
scalar AODVSim.vehicle[9].manetrouting.wlan[0].radio 	lossRate:max 	-nan
attr interpolationmode  backward-sample-hold
attr title  "packet loss rate, max"
scalar AODVSim.vehicle[9].manetrouting.wlan[0].radio 	lossRate:timeavg 	-nan
attr interpolationmode  backward-sample-hold
attr title  "packet loss rate, timeavg"
statistic AODVSim.vehicle[9].manetrouting.wlan[0].radio 	channelNo:histogram
field count 1
field mean 0
field stddev -nan
field sum 0
field sqrsum 0
field min 0
field max 0
attr interpolationmode  sample-hold
attr title  "channel no, histogram"
bin	-INF	0
bin	-0.5	0
bin	-0.46666666666667	0
bin	-0.43333333333333	0
bin	-0.4	0
bin	-0.36666666666667	0
bin	-0.33333333333333	0
bin	-0.3	0
bin	-0.26666666666667	0
bin	-0.23333333333333	0
bin	-0.2	0
bin	-0.16666666666667	0
bin	-0.13333333333333	0
bin	-0.1	0
bin	-0.066666666666667	0
bin	-0.033333333333333	0
bin	0	1
bin	0.033333333333333	0
bin	0.066666666666667	0
bin	0.1	0
bin	0.13333333333333	0
bin	0.16666666666667	0
bin	0.2	0
bin	0.23333333333333	0
bin	0.26666666666667	0
bin	0.3	0
bin	0.33333333333333	0
bin	0.36666666666667	0
bin	0.4	0
bin	0.43333333333333	0
bin	0.46666666666667	0
bin	0.5	0
scalar AODVSim.vehicle[9].manetrouting.wlan[0].radio 	bitrate:min 	54000000
attr interpolationmode  sample-hold
attr title  "tx bitrate, min"
attr unit  bps
scalar AODVSim.vehicle[9].manetrouting.wlan[0].radio 	bitrate:max 	54000000
attr interpolationmode  sample-hold
attr title  "tx bitrate, max"
attr unit  bps
scalar AODVSim.vehicle[9].manetrouting.wlan[0].radio 	bitrate:timeavg 	54000000
attr interpolationmode  sample-hold
attr title  "tx bitrate, timeavg"
attr unit  bps
scalar AODVSim.vehicle[9].manetrouting.wlan[0].radio 	radioState:count 	1
[...]
attr interpolationmode  backward-sample-hold
attr title  "packet loss rate, max"
scalar AODVSim.vehicle[3].manetrouting.wlan[0].radio 	lossRate:timeavg 	-nan
attr interpolationmode  backward-sample-hold
attr title  "packet loss rate, timeavg"
statistic AODVSim.vehicle[3].manetrouting.wlan[0].radio 	channelNo:histogram
field count 1
field mean 0
field stddev -nan
field sum 0
field sqrsum 0
field min 0
field max 0
attr interpolationmode  sample-hold
attr title  "channel no, histogram"
bin	-INF	0
bin	-0.5	0
bin	-0.46666666666667	0
bin	-0.43333333333333	0
bin	-0.4	0
bin	-0.36666666666667	0
bin	-0.33333333333333	0
bin	-0.3	0
bin	-0.26666666666667	0
bin	-0.23333333333333	0
bin	-0.2	0
bin	-0.16666666666667	0
bin	-0.13333333333333	0
bin	-0.1	0
bin	-0.066666666666667	0
bin	-0.033333333333333	0
bin	0	1
bin	0.033333333333333	0
bin	0.066666666666667	0
bin	0.1	0
bin	0.13333333333333	0
bin	0.16666666666667	0
bin	0.2	0
bin	0.23333333333333	0
bin	0.26666666666667	0
bin	0.3	0
bin	0.33333333333333	0
bin	0.36666666666667	0
bin	0.4	0
bin	0.43333333333333	0
bin	0.46666666666667	0
bin	0.5	0
scalar AODVSim.vehicle[3].manetrouting.wlan[0].radio 	bitrate:min 	54000000
attr interpolationmode  sample-hold
attr title  "tx bitrate, min"
attr unit  bps
scalar AODVSim.vehicle[3].manetrouting.wlan[0].radio 	bitrate:max 	54000000
attr interpolationmode  sample-hold
attr title  "tx bitrate, max"
attr unit  bps
scalar AODVSim.vehicle[3].manetrouting.wlan[0].radio 	bitrate:timeavg 	54000000
attr interpolationmode  sample-hold
attr title  "tx bitrate, timeavg"
attr unit  bps
scalar AODVSim.vehicle[3].manetrouting.wlan[0].radio 	radioState:count 	1
attr interpolationmode  sample-hold
attr title  "radio state (enum), count"
scalar AODVSim.vehicle[4].mobility 	startTime 	17.1
scalar AODVSim.vehicle[4].mobility 	totalTime 	54.1
scalar AODVSim.vehicle[4].mobility 	stopTime 	54.1
scalar AODVSim.vehicle[4].mobility 	minSpeed 	0.2518232359637
scalar AODVSim.vehicle[4].mobility 	maxSpeed 	13.999992125905
scalar AODVSim.vehicle[4].mobility 	totalDistance 	467.08560058269
scalar AODVSim.vehicle[4].mobility 	totalCO2Emission 	104.59289891641
scalar AODVSim.vehicle[4].udp 	droppedPkBadChecksum:count 	0
attr interpolationmode  none
attr title  "packets dropped (checksum error), count"
scalar AODVSim.vehicle[4].udp 	droppedPkWrongPort:count 	0
attr interpolationmode  none
attr title  "packets dropped (wrong port), count"
scalar AODVSim.vehicle[4].udp 	passedUpPk:count 	0
attr interpolationmode  none
attr title  "packets passed up, count"
scalar AODVSim.vehicle[4].udp 	rcvdPk:count 	0
attr interpolationmode  none
attr source  rcvdPk
attr title  "packets received, count"
scalar AODVSim.vehicle[4].udp 	rcvdPk:sum(packetBytes) 	0
attr interpolationmode  none
attr source  rcvdPk
attr title  "packets received, sum(packetBytes)"
scalar AODVSim.vehicle[4].udp 	sentPk:count 	1
attr interpolationmode  none
attr source  sentPk
attr title  "packets sent, count"
scalar AODVSim.vehicle[4].udp 	sentPk:sum(packetBytes) 	8
attr interpolationmode  none
attr source  sentPk
attr title  "packets sent, sum(packetBytes)"
scalar AODVSim.vehicle[4].networkLayer.arp 	failedARPResolution:count 	0
attr title  "ARP failed resolutions, count"
scalar AODVSim.vehicle[4].networkLayer.arp 	completedARPResolution:count 	0
attr title  "ARP completed resolutions, count"
scalar AODVSim.vehicle[4].networkLayer.arp 	initiatedARPResolution:count 	0
attr title  "ARP initiated resolutions, count"
scalar AODVSim.vehicle[4].networkLayer.arp 	sentReply:count 	0
attr title  "ARP replies sent, count"
scalar AODVSim.vehicle[4].networkLayer.arp 	sentReq:count 	0
attr title  "ARP request sent, count"
scalar AODVSim.vehicle[4].wlan.mgmt 	dataQueueLen:max 	0
attr interpolationmode  sample-hold
attr title  "data queue length, max"
scalar AODVSim.vehicle[4].wlan.mgmt 	dataQueueLen:timeavg 	0
attr interpolationmode  sample-hold
attr title  "data queue length, timeavg"
scalar AODVSim.vehicle[4].wlan.mgmt 	dropPkByQueue:count 	0
attr interpolationmode  none
attr source  dropPkByQueue
attr title  "packets dropped by queue, count"
scalar AODVSim.vehicle[4].wlan.mgmt 	dropPkByQueue:sum(packetBytes) 	0
attr interpolationmode  none
attr source  dropPkByQueue
attr title  "packets dropped by queue, sum(packetBytes)"
scalar AODVSim.vehicle[4].wlan.mac 	"number of received packets" 	0
scalar AODVSim.vehicle[4].wlan.mac 	"number of collisions" 	0
scalar AODVSim.vehicle[4].wlan.mac 	"number of internal collisions" 	0
scalar AODVSim.vehicle[4].wlan.mac 	"number of retry for AC 0" 	0
scalar AODVSim.vehicle[4].wlan.mac 	"sent and received bits" 	560
scalar AODVSim.vehicle[4].wlan.mac 	"sent packet within AC 0" 	0
scalar AODVSim.vehicle[4].wlan.mac 	"sent in TXOP " 	0
scalar AODVSim.vehicle[4].wlan.mac 	"sentWithoutRetry AC 0" 	0
scalar AODVSim.vehicle[4].wlan.mac 	"numGivenUp AC 0" 	0
scalar AODVSim.vehicle[4].wlan.mac 	"numDropped AC 0" 	0
scalar AODVSim.vehicle[4].wlan.mac 	rcvdPkFromHL:count 	1
attr interpolationmode  none
attr source  packetReceivedFromUpper
attr title  "packets received from higher layer, count"
scalar AODVSim.vehicle[4].wlan.mac 	rcvdPkFromHL:sum(packetBytes) 	70
attr interpolationmode  none
attr source  packetReceivedFromUpper
attr title  "packets received from higher layer, sum(packetBytes)"
scalar AODVSim.vehicle[4].wlan.mac 	passedUpPk:count 	0
attr interpolationmode  none
attr source  packetSentToUpper
attr title  "packets passed to higher layer, count"
scalar AODVSim.vehicle[4].wlan.mac 	passedUpPk:sum(packetBytes) 	0
attr interpolationmode  none
attr source  packetSentToUpper
attr title  "packets passed to higher layer, sum(packetBytes)"
scalar AODVSim.vehicle[4].wlan.mac 	rcvdPkFromLL:count 	0
attr interpolationmode  none
attr source  packetReceivedFromLower
attr title  "packets received from lower layer, count"
scalar AODVSim.vehicle[4].wlan.mac 	rcvdPkFromLL:sum(packetBytes) 	0
attr interpolationmode  none
attr source  packetReceivedFromLower
attr title  "packets received from lower layer, sum(packetBytes)"
scalar AODVSim.vehicle[4].wlan.mac 	sentDownPk:count 	1
attr interpolationmode  none
attr source  packetSentToLower
attr title  "packets sent to lower layer, count"
scalar AODVSim.vehicle[4].wlan.mac 	sentDownPk:sum(packetBytes) 	70
attr interpolationmode  none
attr source  packetSentToLower
attr title  "packets sent to lower layer, sum(packetBytes)"
scalar AODVSim.vehicle[4].wlan.radio 	lossRate:min 	-nan
attr interpolationmode  backward-sample-hold
attr title  "packet loss rate, min"
scalar AODVSim.vehicle[4].wlan.radio 	lossRate:max 	-nan
attr interpolationmode  backward-sample-hold
attr title  "packet loss rate, max"
scalar AODVSim.vehicle[4].wlan.radio 	lossRate:timeavg 	-nan
attr interpolationmode  backward-sample-hold
attr title  "packet loss rate, timeavg"
statistic AODVSim.vehicle[4].wlan.radio 	channelNo:histogram
field count 1
field mean 0
field stddev -nan
field sum 0
field sqrsum 0
field min 0
field max 0
attr interpolationmode  sample-hold
attr title  "channel no, histogram"
bin	-INF	0
bin	-0.5	0
bin	-0.46666666666667	0
bin	-0.43333333333333	0
bin	-0.4	0
bin	-0.36666666666667	0
bin	-0.33333333333333	0
bin	-0.3	0
bin	-0.26666666666667	0
bin	-0.23333333333333	0
bin	-0.2	0
bin	-0.16666666666667	0
bin	-0.13333333333333	0
bin	-0.1	0
bin	-0.066666666666667	0
bin	-0.033333333333333	0
bin	0	1
bin	0.033333333333333	0
bin	0.066666666666667	0
bin	0.1	0
bin	0.13333333333333	0
bin	0.16666666666667	0
bin	0.2	0
bin	0.23333333333333	0
bin	0.26666666666667	0
bin	0.3	0
bin	0.33333333333333	0
bin	0.36666666666667	0
bin	0.4	0
bin	0.43333333333333	0
bin	0.46666666666667	0
bin	0.5	0
scalar AODVSim.vehicle[4].wlan.radio 	bitrate:min 	2000000
attr interpolationmode  sample-hold
attr title  "tx bitrate, min"
attr unit  bps
scalar AODVSim.vehicle[4].wlan.radio 	bitrate:max 	2000000
attr interpolationmode  sample-hold
attr title  "tx bitrate, max"
attr unit  bps
scalar AODVSim.vehicle[4].wlan.radio 	bitrate:timeavg 	2000000
attr interpolationmode  sample-hold
attr title  "tx bitrate, timeavg"
attr unit  bps
scalar AODVSim.vehicle[4].wlan.radio 	radioState:count 	3
attr interpolationmode  sample-hold
attr title  "radio state (enum), count"
scalar AODVSim.vehicle[4].manetrouting.networkLayer.arp 	failedARPResolution:count 	0
attr title  "ARP failed resolutions, count"
scalar AODVSim.vehicle[4].manetrouting.networkLayer.arp 	completedARPResolution:count 	0
attr title  "ARP completed resolutions, count"
scalar AODVSim.vehicle[4].manetrouting.networkLayer.arp 	initiatedARPResolution:count 	0
attr title  "ARP initiated resolutions, count"
scalar AODVSim.vehicle[4].manetrouting.networkLayer.arp 	sentReply:count 	0
attr title  "ARP replies sent, count"
scalar AODVSim.vehicle[4].manetrouting.networkLayer.arp 	sentReq:count 	0
attr title  "ARP request sent, count"
scalar AODVSim.vehicle[4].manetrouting.lo0.lo 	droppedPkBitError:count 	0
attr interpolationmode  none
attr source  dropPkBitError
attr title  "packets dropped/bit error, count"
scalar AODVSim.vehicle[4].manetrouting.lo0.lo 	droppedPkBitError:sum(packetBytes) 	0
attr interpolationmode  none
attr source  dropPkBitError
attr title  "packets dropped/bit error, sum(packetBytes)"
scalar AODVSim.vehicle[4].manetrouting.lo0.lo 	rcvdPkFromHL:count 	0
attr interpolationmode  none
attr source  packetReceivedFromUpper
attr title  "packets received from higher layer, count"
scalar AODVSim.vehicle[4].manetrouting.lo0.lo 	rcvdPkFromHL:sum(packetBytes) 	0
attr interpolationmode  none
attr source  packetReceivedFromUpper
attr title  "packets received from higher layer, sum(packetBytes)"
scalar AODVSim.vehicle[4].manetrouting.lo0.lo 	passedUpPk:count 	0
attr interpolationmode  none
attr source  packetSentToUpper
attr title  "packets passed to higher layer, count"
scalar AODVSim.vehicle[4].manetrouting.lo0.lo 	passedUpPk:sum(packetBytes) 	0
attr interpolationmode  none
attr source  packetSentToUpper
attr title  "packets passed to higher layer, sum(packetBytes)"
scalar AODVSim.vehicle[4].manetrouting.wlan[0].mgmt 	dataQueueLen:max 	0
attr interpolationmode  sample-hold
attr title  "data queue length, max"
scalar AODVSim.vehicle[4].manetrouting.wlan[0].mgmt 	dataQueueLen:timeavg 	0
attr interpolationmode  sample-hold
attr title  "data queue length, timeavg"
scalar AODVSim.vehicle[4].manetrouting.wlan[0].mgmt 	dropPkByQueue:count 	0
attr interpolationmode  none
attr source  dropPkByQueue
attr title  "packets dropped by queue, count"
scalar AODVSim.vehicle[4].manetrouting.wlan[0].mgmt 	dropPkByQueue:sum(packetBytes) 	0
attr interpolationmode  none
attr source  dropPkByQueue
attr title  "packets dropped by queue, sum(packetBytes)"
scalar AODVSim.vehicle[4].manetrouting.wlan[0].mac 	"number of received packets" 	0
scalar AODVSim.vehicle[4].manetrouting.wlan[0].mac 	"number of collisions" 	0
scalar AODVSim.vehicle[4].manetrouting.wlan[0].mac 	"number of internal collisions" 	0
scalar AODVSim.vehicle[4].manetrouting.wlan[0].mac 	"number of retry for AC 0" 	0
scalar AODVSim.vehicle[4].manetrouting.wlan[0].mac 	"sent and received bits" 	0
scalar AODVSim.vehicle[4].manetrouting.wlan[0].mac 	"sent packet within AC 0" 	0
scalar AODVSim.vehicle[4].manetrouting.wlan[0].mac 	"sent in TXOP " 	0
scalar AODVSim.vehicle[4].manetrouting.wlan[0].mac 	"sentWithoutRetry AC 0" 	0
scalar AODVSim.vehicle[4].manetrouting.wlan[0].mac 	"numGivenUp AC 0" 	0
scalar AODVSim.vehicle[4].manetrouting.wlan[0].mac 	"numDropped AC 0" 	0
scalar AODVSim.vehicle[4].manetrouting.wlan[0].mac 	rcvdPkFromHL:count 	0
attr interpolationmode  none
attr source  packetReceivedFromUpper
attr title  "packets received from higher layer, count"
scalar AODVSim.vehicle[4].manetrouting.wlan[0].mac 	rcvdPkFromHL:sum(packetBytes) 	0
attr interpolationmode  none
attr source  packetReceivedFromUpper
attr title  "packets received from higher layer, sum(packetBytes)"
scalar AODVSim.vehicle[4].manetrouting.wlan[0].mac 	passedUpPk:count 	0
attr interpolationmode  none
attr source  packetSentToUpper
attr title  "packets passed to higher layer, count"
scalar AODVSim.vehicle[4].manetrouting.wlan[0].mac 	passedUpPk:sum(packetBytes) 	0
attr interpolationmode  none
attr source  packetSentToUpper
attr title  "packets passed to higher layer, sum(packetBytes)"
scalar AODVSim.vehicle[4].manetrouting.wlan[0].mac 	rcvdPkFromLL:count 	0
attr interpolationmode  none
attr source  packetReceivedFromLower
attr title  "packets received from lower layer, count"
scalar AODVSim.vehicle[4].manetrouting.wlan[0].mac 	rcvdPkFromLL:sum(packetBytes) 	0
attr interpolationmode  none
attr source  packetReceivedFromLower
attr title  "packets received from lower layer, sum(packetBytes)"
scalar AODVSim.vehicle[4].manetrouting.wlan[0].mac 	sentDownPk:count 	0
attr interpolationmode  none
attr source  packetSentToLower
attr title  "packets sent to lower layer, count"
scalar AODVSim.vehicle[4].manetrouting.wlan[0].mac 	sentDownPk:sum(packetBytes) 	0
attr interpolationmode  none
attr source  packetSentToLower
attr title  "packets sent to lower layer, sum(packetBytes)"
scalar AODVSim.vehicle[4].manetrouting.wlan[0].radio 	lossRate:min 	-nan
attr interpolationmode  backward-sample-hold
attr title  "packet loss rate, min"
scalar AODVSim.vehicle[4].manetrouting.wlan[0].radio 	lossRate:max 	-nan
attr interpolationmode  backward-sample-hold
attr title  "packet loss rate, max"
scalar AODVSim.vehicle[4].manetrouting.wlan[0].radio 	lossRate:timeavg 	-nan
attr interpolationmode  backward-sample-hold
attr title  "packet loss rate, timeavg"
statistic AODVSim.vehicle[4].manetrouting.wlan[0].radio 	channelNo:histogram
field count 1
field mean 0
field stddev -nan
field sum 0
field sqrsum 0
field min 0
field max 0
attr interpolationmode  sample-hold
attr title  "channel no, histogram"
bin	-INF	0
bin	-0.5	0
bin	-0.46666666666667	0
bin	-0.43333333333333	0
bin	-0.4	0
bin	-0.36666666666667	0
bin	-0.33333333333333	0
bin	-0.3	0
bin	-0.26666666666667	0
bin	-0.23333333333333	0
bin	-0.2	0
bin	-0.16666666666667	0
bin	-0.13333333333333	0
bin	-0.1	0
bin	-0.066666666666667	0
bin	-0.033333333333333	0
bin	0	1
bin	0.033333333333333	0
bin	0.066666666666667	0
bin	0.1	0
bin	0.13333333333333	0
bin	0.16666666666667	0
bin	0.2	0
bin	0.23333333333333	0
bin	0.26666666666667	0
bin	0.3	0
bin	0.33333333333333	0
bin	0.36666666666667	0
bin	0.4	0
bin	0.43333333333333	0
bin	0.46666666666667	0
bin	0.5	0
scalar AODVSim.vehicle[4].manetrouting.wlan[0].radio 	bitrate:min 	54000000
attr interpolationmode  sample-hold
attr title  "tx bitrate, min"
attr unit  bps
scalar AODVSim.vehicle[4].manetrouting.wlan[0].radio 	bitrate:max 	54000000
attr interpolationmode  sample-hold
attr title  "tx bitrate, max"
attr unit  bps
scalar AODVSim.vehicle[4].manetrouting.wlan[0].radio 	bitrate:timeavg 	54000000
attr interpolationmode  sample-hold
attr title  "tx bitrate, timeavg"
attr unit  bps
scalar AODVSim.vehicle[4].manetrouting.wlan[0].radio 	radioState:count 	1
attr interpolationmode  sample-hold
attr title  "radio state (enum), count"
scalar AODVSim.rsu[0].networkLayer.arp 	failedARPResolution:count 	0
attr title  "ARP failed resolutions, count"
scalar AODVSim.rsu[0].networkLayer.arp 	completedARPResolution:count 	0
attr title  "ARP completed resolutions, count"
scalar AODVSim.rsu[0].networkLayer.arp 	initiatedARPResolution:count 	0
attr title  "ARP initiated resolutions, count"
scalar AODVSim.rsu[0].networkLayer.arp 	sentReply:count 	0
attr title  "ARP replies sent, count"
scalar AODVSim.rsu[0].networkLayer.arp 	sentReq:count 	0
attr title  "ARP request sent, count"
scalar AODVSim.rsu[0].wlan.mgmt 	dataQueueLen:max 	0
attr interpolationmode  sample-hold
attr title  "data queue length, max"
scalar AODVSim.rsu[0].wlan.mgmt 	dataQueueLen:timeavg 	0
attr interpolationmode  sample-hold
attr title  "data queue length, timeavg"
scalar AODVSim.rsu[0].wlan.mgmt 	dropPkByQueue:count 	0
attr interpolationmode  none
attr source  dropPkByQueue
attr title  "packets dropped by queue, count"
scalar AODVSim.rsu[0].wlan.mgmt 	dropPkByQueue:sum(packetBytes) 	0
attr interpolationmode  none
attr source  dropPkByQueue
attr title  "packets dropped by queue, sum(packetBytes)"
scalar AODVSim.rsu[0].wlan.mac 	"number of received packets" 	0
scalar AODVSim.rsu[0].wlan.mac 	"number of collisions" 	0
scalar AODVSim.rsu[0].wlan.mac 	"number of internal collisions" 	0
scalar AODVSim.rsu[0].wlan.mac 	"number of retry for AC 0" 	0
scalar AODVSim.rsu[0].wlan.mac 	"sent and received bits" 	0
scalar AODVSim.rsu[0].wlan.mac 	"sent packet within AC 0" 	0
scalar AODVSim.rsu[0].wlan.mac 	"sent in TXOP " 	0
scalar AODVSim.rsu[0].wlan.mac 	"sentWithoutRetry AC 0" 	0
scalar AODVSim.rsu[0].wlan.mac 	"numGivenUp AC 0" 	0
scalar AODVSim.rsu[0].wlan.mac 	"numDropped AC 0" 	0
scalar AODVSim.rsu[0].wlan.mac 	rcvdPkFromHL:count 	0
attr interpolationmode  none
attr source  packetReceivedFromUpper
attr title  "packets received from higher layer, count"
scalar AODVSim.rsu[0].wlan.mac 	rcvdPkFromHL:sum(packetBytes) 	0
attr interpolationmode  none
attr source  packetReceivedFromUpper
attr title  "packets received from higher layer, sum(packetBytes)"
scalar AODVSim.rsu[0].wlan.mac 	passedUpPk:count 	0
attr interpolationmode  none
attr source  packetSentToUpper
attr title  "packets passed to higher layer, count"
scalar AODVSim.rsu[0].wlan.mac 	passedUpPk:sum(packetBytes) 	0
attr interpolationmode  none
attr source  packetSentToUpper
attr title  "packets passed to higher layer, sum(packetBytes)"
scalar AODVSim.rsu[0].wlan.mac 	rcvdPkFromLL:count 	0
attr interpolationmode  none
attr source  packetReceivedFromLower
attr title  "packets received from lower layer, count"
scalar AODVSim.rsu[0].wlan.mac 	rcvdPkFromLL:sum(packetBytes) 	0
attr interpolationmode  none
attr source  packetReceivedFromLower
attr title  "packets received from lower layer, sum(packetBytes)"
scalar AODVSim.rsu[0].wlan.mac 	sentDownPk:count 	0
attr interpolationmode  none
attr source  packetSentToLower
attr title  "packets sent to lower layer, count"
scalar AODVSim.rsu[0].wlan.mac 	sentDownPk:sum(packetBytes) 	0
attr interpolationmode  none
attr source  packetSentToLower
attr title  "packets sent to lower layer, sum(packetBytes)"
scalar AODVSim.rsu[0].wlan.radio 	lossRate:min 	-nan
attr interpolationmode  backward-sample-hold
attr title  "packet loss rate, min"
scalar AODVSim.rsu[0].wlan.radio 	lossRate:max 	-nan
attr interpolationmode  backward-sample-hold
attr title  "packet loss rate, max"
scalar AODVSim.rsu[0].wlan.radio 	lossRate:timeavg 	-nan
attr interpolationmode  backward-sample-hold
attr title  "packet loss rate, timeavg"
statistic AODVSim.rsu[0].wlan.radio 	channelNo:histogram
field count 1
field mean 0
field stddev -nan
field sum 0
field sqrsum 0
field min 0
field max 0
attr interpolationmode  sample-hold
attr title  "channel no, histogram"
bin	-INF	0
bin	-0.5	0
bin	-0.46666666666667	0
bin	-0.43333333333333	0
bin	-0.4	0
bin	-0.36666666666667	0
bin	-0.33333333333333	0
bin	-0.3	0
bin	-0.26666666666667	0
bin	-0.23333333333333	0
bin	-0.2	0
bin	-0.16666666666667	0
bin	-0.13333333333333	0
bin	-0.1	0
bin	-0.066666666666667	0
bin	-0.033333333333333	0
bin	0	1
bin	0.033333333333333	0
bin	0.066666666666667	0
bin	0.1	0
bin	0.13333333333333	0
bin	0.16666666666667	0
bin	0.2	0
bin	0.23333333333333	0
bin	0.26666666666667	0
bin	0.3	0
bin	0.33333333333333	0
bin	0.36666666666667	0
bin	0.4	0
bin	0.43333333333333	0
bin	0.46666666666667	0
bin	0.5	0
scalar AODVSim.rsu[0].wlan.radio 	bitrate:min 	2000000
attr interpolationmode  sample-hold
attr title  "tx bitrate, min"
attr unit  bps
scalar AODVSim.rsu[0].wlan.radio 	bitrate:max 	2000000
attr interpolationmode  sample-hold
attr title  "tx bitrate, max"
attr unit  bps
scalar AODVSim.rsu[0].wlan.radio 	bitrate:timeavg 	2000000
attr interpolationmode  sample-hold
attr title  "tx bitrate, timeavg"
attr unit  bps
scalar AODVSim.rsu[0].wlan.radio 	radioState:count 	1
attr interpolationmode  sample-hold
attr title  "radio state (enum), count"
